version 3
run General-0-20250525-16:24:08-7384
attr configname General
attr datetime 20250525-16:24:08
attr datetimef 20250525-162408
attr experiment General
attr inifile omnetpp.ini
attr iterationvars ""
attr iterationvarsd ""
attr iterationvarsf ""
attr measurement ""
attr network VeryLargeNetwork
attr processid 7384
attr repetition 0
attr replication #0
attr resultdir results
attr runnumber 0
attr seedset 0
config image-path ../../../inet-4.5.x/inet-4.5.x/images
config network VeryLargeNetwork
config *.R*.rip.triggeredUpdate true

par VeryLargeNetwork.h1.ethg$o[0].channel typename "\"VeryLargeNetwork.C\""
par VeryLargeNetwork.h1.ethg$o[0].channel disabled false
attr mutable ""
par VeryLargeNetwork.h1.ethg$o[0].channel delay 1e-07s
attr mutable ""
attr unit s
par VeryLargeNetwork.h1.ethg$o[0].channel datarate 1e+08bps
attr mutable ""
attr unit bps
par VeryLargeNetwork.h1.ethg$o[0].channel ber 0
attr mutable ""
par VeryLargeNetwork.h1.ethg$o[0].channel per 0
attr mutable ""
par VeryLargeNetwork.r[0].ethg$o[0].channel typename "\"VeryLargeNetwork.C\""
par VeryLargeNetwork.r[0].ethg$o[0].channel disabled false
attr mutable ""
par VeryLargeNetwork.r[0].ethg$o[0].channel delay 1e-07s
attr mutable ""
attr unit s
par VeryLargeNetwork.r[0].ethg$o[0].channel datarate 1e+08bps
attr mutable ""
attr unit bps
par VeryLargeNetwork.r[0].ethg$o[0].channel ber 0
attr mutable ""
par VeryLargeNetwork.r[0].ethg$o[0].channel per 0
attr mutable ""
par VeryLargeNetwork.r[0].ethg$o[1].channel typename "\"VeryLargeNetwork.C\""
par VeryLargeNetwork.r[0].ethg$o[1].channel disabled false
attr mutable ""
par VeryLargeNetwork.r[0].ethg$o[1].channel delay 1e-07s
attr mutable ""
attr unit s
par VeryLargeNetwork.r[0].ethg$o[1].channel datarate 1e+08bps
attr mutable ""
attr unit bps
par VeryLargeNetwork.r[0].ethg$o[1].channel ber 0
attr mutable ""
par VeryLargeNetwork.r[0].ethg$o[1].channel per 0
attr mutable ""
par VeryLargeNetwork.r[1].ethg$o[0].channel typename "\"VeryLargeNetwork.C\""
par VeryLargeNetwork.r[1].ethg$o[0].channel disabled false
attr mutable ""
par VeryLargeNetwork.r[1].ethg$o[0].channel delay 1e-07s
attr mutable ""
attr unit s
par VeryLargeNetwork.r[1].ethg$o[0].channel datarate 1e+08bps
attr mutable ""
attr unit bps
par VeryLargeNetwork.r[1].ethg$o[0].channel ber 0
attr mutable ""
par VeryLargeNetwork.r[1].ethg$o[0].channel per 0
attr mutable ""
par VeryLargeNetwork.r[1].ethg$o[1].channel typename "\"VeryLargeNetwork.C\""
par VeryLargeNetwork.r[1].ethg$o[1].channel disabled false
attr mutable ""
par VeryLargeNetwork.r[1].ethg$o[1].channel delay 1e-07s
attr mutable ""
attr unit s
par VeryLargeNetwork.r[1].ethg$o[1].channel datarate 1e+08bps
attr mutable ""
attr unit bps
par VeryLargeNetwork.r[1].ethg$o[1].channel ber 0
attr mutable ""
par VeryLargeNetwork.r[1].ethg$o[1].channel per 0
attr mutable ""
par VeryLargeNetwork.r[2].ethg$o[0].channel typename "\"VeryLargeNetwork.C\""
par VeryLargeNetwork.r[2].ethg$o[0].channel disabled false
attr mutable ""
par VeryLargeNetwork.r[2].ethg$o[0].channel delay 1e-07s
attr mutable ""
attr unit s
par VeryLargeNetwork.r[2].ethg$o[0].channel datarate 1e+08bps
attr mutable ""
attr unit bps
par VeryLargeNetwork.r[2].ethg$o[0].channel ber 0
attr mutable ""
par VeryLargeNetwork.r[2].ethg$o[0].channel per 0
attr mutable ""
par VeryLargeNetwork.r[2].ethg$o[1].channel typename "\"VeryLargeNetwork.C\""
par VeryLargeNetwork.r[2].ethg$o[1].channel disabled false
attr mutable ""
par VeryLargeNetwork.r[2].ethg$o[1].channel delay 1e-07s
attr mutable ""
attr unit s
par VeryLargeNetwork.r[2].ethg$o[1].channel datarate 1e+08bps
attr mutable ""
attr unit bps
par VeryLargeNetwork.r[2].ethg$o[1].channel ber 0
attr mutable ""
par VeryLargeNetwork.r[2].ethg$o[1].channel per 0
attr mutable ""
par VeryLargeNetwork.r[3].ethg$o[0].channel typename "\"VeryLargeNetwork.C\""
par VeryLargeNetwork.r[3].ethg$o[0].channel disabled false
attr mutable ""
par VeryLargeNetwork.r[3].ethg$o[0].channel delay 1e-07s
attr mutable ""
attr unit s
par VeryLargeNetwork.r[3].ethg$o[0].channel datarate 1e+08bps
attr mutable ""
attr unit bps
par VeryLargeNetwork.r[3].ethg$o[0].channel ber 0
attr mutable ""
par VeryLargeNetwork.r[3].ethg$o[0].channel per 0
attr mutable ""
par VeryLargeNetwork.r[3].ethg$o[1].channel typename "\"VeryLargeNetwork.C\""
par VeryLargeNetwork.r[3].ethg$o[1].channel disabled false
attr mutable ""
par VeryLargeNetwork.r[3].ethg$o[1].channel delay 1e-07s
attr mutable ""
attr unit s
par VeryLargeNetwork.r[3].ethg$o[1].channel datarate 1e+08bps
attr mutable ""
attr unit bps
par VeryLargeNetwork.r[3].ethg$o[1].channel ber 0
attr mutable ""
par VeryLargeNetwork.r[3].ethg$o[1].channel per 0
attr mutable ""
par VeryLargeNetwork.r[4].ethg$o[0].channel typename "\"VeryLargeNetwork.C\""
par VeryLargeNetwork.r[4].ethg$o[0].channel disabled false
attr mutable ""
par VeryLargeNetwork.r[4].ethg$o[0].channel delay 1e-07s
attr mutable ""
attr unit s
par VeryLargeNetwork.r[4].ethg$o[0].channel datarate 1e+08bps
attr mutable ""
attr unit bps
par VeryLargeNetwork.r[4].ethg$o[0].channel ber 0
attr mutable ""
par VeryLargeNetwork.r[4].ethg$o[0].channel per 0
attr mutable ""
par VeryLargeNetwork.r[4].ethg$o[1].channel typename "\"VeryLargeNetwork.C\""
par VeryLargeNetwork.r[4].ethg$o[1].channel disabled false
attr mutable ""
par VeryLargeNetwork.r[4].ethg$o[1].channel delay 1e-07s
attr mutable ""
attr unit s
par VeryLargeNetwork.r[4].ethg$o[1].channel datarate 1e+08bps
attr mutable ""
attr unit bps
par VeryLargeNetwork.r[4].ethg$o[1].channel ber 0
attr mutable ""
par VeryLargeNetwork.r[4].ethg$o[1].channel per 0
attr mutable ""
par VeryLargeNetwork.r[5].ethg$o[0].channel typename "\"VeryLargeNetwork.C\""
par VeryLargeNetwork.r[5].ethg$o[0].channel disabled false
attr mutable ""
par VeryLargeNetwork.r[5].ethg$o[0].channel delay 1e-07s
attr mutable ""
attr unit s
par VeryLargeNetwork.r[5].ethg$o[0].channel datarate 1e+08bps
attr mutable ""
attr unit bps
par VeryLargeNetwork.r[5].ethg$o[0].channel ber 0
attr mutable ""
par VeryLargeNetwork.r[5].ethg$o[0].channel per 0
attr mutable ""
par VeryLargeNetwork.r[5].ethg$o[1].channel typename "\"VeryLargeNetwork.C\""
par VeryLargeNetwork.r[5].ethg$o[1].channel disabled false
attr mutable ""
par VeryLargeNetwork.r[5].ethg$o[1].channel delay 1e-07s
attr mutable ""
attr unit s
par VeryLargeNetwork.r[5].ethg$o[1].channel datarate 1e+08bps
attr mutable ""
attr unit bps
par VeryLargeNetwork.r[5].ethg$o[1].channel ber 0
attr mutable ""
par VeryLargeNetwork.r[5].ethg$o[1].channel per 0
attr mutable ""
par VeryLargeNetwork.r[6].ethg$o[0].channel typename "\"VeryLargeNetwork.C\""
par VeryLargeNetwork.r[6].ethg$o[0].channel disabled false
attr mutable ""
par VeryLargeNetwork.r[6].ethg$o[0].channel delay 1e-07s
attr mutable ""
attr unit s
par VeryLargeNetwork.r[6].ethg$o[0].channel datarate 1e+08bps
attr mutable ""
attr unit bps
par VeryLargeNetwork.r[6].ethg$o[0].channel ber 0
attr mutable ""
par VeryLargeNetwork.r[6].ethg$o[0].channel per 0
attr mutable ""
par VeryLargeNetwork.r[6].ethg$o[1].channel typename "\"VeryLargeNetwork.C\""
par VeryLargeNetwork.r[6].ethg$o[1].channel disabled false
attr mutable ""
par VeryLargeNetwork.r[6].ethg$o[1].channel delay 1e-07s
attr mutable ""
attr unit s
par VeryLargeNetwork.r[6].ethg$o[1].channel datarate 1e+08bps
attr mutable ""
attr unit bps
par VeryLargeNetwork.r[6].ethg$o[1].channel ber 0
attr mutable ""
par VeryLargeNetwork.r[6].ethg$o[1].channel per 0
attr mutable ""
par VeryLargeNetwork.r[7].ethg$o[0].channel typename "\"VeryLargeNetwork.C\""
par VeryLargeNetwork.r[7].ethg$o[0].channel disabled false
attr mutable ""
par VeryLargeNetwork.r[7].ethg$o[0].channel delay 1e-07s
attr mutable ""
attr unit s
par VeryLargeNetwork.r[7].ethg$o[0].channel datarate 1e+08bps
attr mutable ""
attr unit bps
par VeryLargeNetwork.r[7].ethg$o[0].channel ber 0
attr mutable ""
par VeryLargeNetwork.r[7].ethg$o[0].channel per 0
attr mutable ""
par VeryLargeNetwork.r[7].ethg$o[1].channel typename "\"VeryLargeNetwork.C\""
par VeryLargeNetwork.r[7].ethg$o[1].channel disabled false
attr mutable ""
par VeryLargeNetwork.r[7].ethg$o[1].channel delay 1e-07s
attr mutable ""
attr unit s
par VeryLargeNetwork.r[7].ethg$o[1].channel datarate 1e+08bps
attr mutable ""
attr unit bps
par VeryLargeNetwork.r[7].ethg$o[1].channel ber 0
attr mutable ""
par VeryLargeNetwork.r[7].ethg$o[1].channel per 0
attr mutable ""
par VeryLargeNetwork.r[8].ethg$o[0].channel typename "\"VeryLargeNetwork.C\""
par VeryLargeNetwork.r[8].ethg$o[0].channel disabled false
attr mutable ""
par VeryLargeNetwork.r[8].ethg$o[0].channel delay 1e-07s
attr mutable ""
attr unit s
par VeryLargeNetwork.r[8].ethg$o[0].channel datarate 1e+08bps
attr mutable ""
attr unit bps
par VeryLargeNetwork.r[8].ethg$o[0].channel ber 0
attr mutable ""
par VeryLargeNetwork.r[8].ethg$o[0].channel per 0
attr mutable ""
par VeryLargeNetwork.r[8].ethg$o[1].channel typename "\"VeryLargeNetwork.C\""
par VeryLargeNetwork.r[8].ethg$o[1].channel disabled false
attr mutable ""
par VeryLargeNetwork.r[8].ethg$o[1].channel delay 1e-07s
attr mutable ""
attr unit s
par VeryLargeNetwork.r[8].ethg$o[1].channel datarate 1e+08bps
attr mutable ""
attr unit bps
par VeryLargeNetwork.r[8].ethg$o[1].channel ber 0
attr mutable ""
par VeryLargeNetwork.r[8].ethg$o[1].channel per 0
attr mutable ""
par VeryLargeNetwork.r[9].ethg$o[0].channel typename "\"VeryLargeNetwork.C\""
par VeryLargeNetwork.r[9].ethg$o[0].channel disabled false
attr mutable ""
par VeryLargeNetwork.r[9].ethg$o[0].channel delay 1e-07s
attr mutable ""
attr unit s
par VeryLargeNetwork.r[9].ethg$o[0].channel datarate 1e+08bps
attr mutable ""
attr unit bps
par VeryLargeNetwork.r[9].ethg$o[0].channel ber 0
attr mutable ""
par VeryLargeNetwork.r[9].ethg$o[0].channel per 0
attr mutable ""
par VeryLargeNetwork.r[9].ethg$o[1].channel typename "\"VeryLargeNetwork.C\""
par VeryLargeNetwork.r[9].ethg$o[1].channel disabled false
attr mutable ""
par VeryLargeNetwork.r[9].ethg$o[1].channel delay 1e-07s
attr mutable ""
attr unit s
par VeryLargeNetwork.r[9].ethg$o[1].channel datarate 1e+08bps
attr mutable ""
attr unit bps
par VeryLargeNetwork.r[9].ethg$o[1].channel ber 0
attr mutable ""
par VeryLargeNetwork.r[9].ethg$o[1].channel per 0
attr mutable ""
par VeryLargeNetwork.h2.ethg$o[0].channel typename "\"VeryLargeNetwork.C\""
par VeryLargeNetwork.h2.ethg$o[0].channel disabled false
attr mutable ""
par VeryLargeNetwork.h2.ethg$o[0].channel delay 1e-07s
attr mutable ""
attr unit s
par VeryLargeNetwork.h2.ethg$o[0].channel datarate 1e+08bps
attr mutable ""
attr unit bps
par VeryLargeNetwork.h2.ethg$o[0].channel ber 0
attr mutable ""
par VeryLargeNetwork.h2.ethg$o[0].channel per 0
attr mutable ""
par VeryLargeNetwork.h1.ethg$i[0].channel typename "\"ned.IdealChannel\""
par VeryLargeNetwork.h1.eth[0].phys$o.channel typename "\"ned.IdealChannel\""
par VeryLargeNetwork.h1.interfaceTable typename "\"inet.networklayer.common.InterfaceTable\""
par VeryLargeNetwork.h1.interfaceTable displayAddresses false
par VeryLargeNetwork.h1.cb typename "\"inet.common.MessageDispatcher\""
par VeryLargeNetwork.h1.cb displayStringTextFormat "\"processed %p pk (%l)\""
par VeryLargeNetwork.h1.cb forwardServiceRegistration true
par VeryLargeNetwork.h1.cb forwardProtocolRegistration true
par VeryLargeNetwork.h1.bl typename "\"inet.common.MessageDispatcher\""
par VeryLargeNetwork.h1.bl displayStringTextFormat "\"processed %p pk (%l)\""
par VeryLargeNetwork.h1.bl forwardServiceRegistration true
par VeryLargeNetwork.h1.bl forwardProtocolRegistration true
par VeryLargeNetwork.h1.ethernet typename "\"inet.linklayer.ethernet.basic.EthernetEncapsulation\""
par VeryLargeNetwork.h1.ethernet registerProtocol true
par VeryLargeNetwork.h1.ethernet interfaceTableModule "\"VeryLargeNetwork.h1.interfaceTable\""
par VeryLargeNetwork.h1.ethernet fcsMode "\"declared\""
attr enum declared,computed
par VeryLargeNetwork.h1.ethernet stopOperationExtraTime -1s
attr unit s
par VeryLargeNetwork.h1.ethernet stopOperationTimeout 2s
attr unit s
scalar VeryLargeNetwork.h1.ethernet decapPk:count 1
attr interpolationmode none
attr recordingmode count
attr source decapPk
attr title "packets decapsulated, count"
scalar VeryLargeNetwork.h1.ethernet decapPk:sum(packetBytes) 52
attr interpolationmode none
attr recordingmode sum(packetBytes)
attr source decapPk
attr title "packets decapsulated, sum(packetBytes)"
scalar VeryLargeNetwork.h1.ethernet encapPk:count 0
attr interpolationmode none
attr recordingmode count
attr source encapPk
attr title "packets encapsulated, count"
scalar VeryLargeNetwork.h1.ethernet encapPk:sum(packetBytes) 0
attr interpolationmode none
attr recordingmode sum(packetBytes)
attr source encapPk
attr title "packets encapsulated, sum(packetBytes)"
scalar VeryLargeNetwork.h1.ethernet pauseSent:count 0
attr recordingmode count
attr title "pause sent, count"
scalar VeryLargeNetwork.h1.ethernet pauseSent:sum 0
attr recordingmode sum
attr title "pause sent, sum"
par VeryLargeNetwork.h1.li typename "\"inet.common.MessageDispatcher\""
par VeryLargeNetwork.h1.li displayStringTextFormat "\"processed %p pk (%l)\""
par VeryLargeNetwork.h1.li forwardServiceRegistration true
par VeryLargeNetwork.h1.li forwardProtocolRegistration true
par VeryLargeNetwork.h1.lo[0].upperLayerIn.channel typename "\"ned.IdealChannel\""
par VeryLargeNetwork.h1.lo[0].lo.upperLayerOut.channel typename "\"ned.IdealChannel\""
par VeryLargeNetwork.h1.lo[0].lo typename "\"inet.linklayer.loopback.Loopback\""
par VeryLargeNetwork.h1.lo[0].lo interfaceTableModule "\"VeryLargeNetwork.h1.interfaceTable\""
par VeryLargeNetwork.h1.lo[0].lo mtu 4470B
attr unit B
scalar VeryLargeNetwork.h1.lo[0].lo rcvdPkFromHl:count 0
attr interpolationmode none
attr recordingmode count
attr source packetReceivedFromUpper
attr title "packets received from higher layer, count"
scalar VeryLargeNetwork.h1.lo[0].lo rcvdPkFromHl:sum(packetBytes) 0
attr interpolationmode none
attr recordingmode sum(packetBytes)
attr source packetReceivedFromUpper
attr title "packets received from higher layer, sum(packetBytes)"
scalar VeryLargeNetwork.h1.lo[0].lo passedUpPk:count 0
attr interpolationmode none
attr recordingmode count
attr source packetSentToUpper
attr title "packets passed to higher layer, count"
scalar VeryLargeNetwork.h1.lo[0].lo passedUpPk:sum(packetBytes) 0
attr interpolationmode none
attr recordingmode sum(packetBytes)
attr source packetSentToUpper
attr title "packets passed to higher layer, sum(packetBytes)"
par VeryLargeNetwork.h1.lo[0] typename "\"inet.linklayer.loopback.LoopbackInterface\""
par VeryLargeNetwork.h1.lo[0] displayStringTextFormat "\"%a (%i)\\n%m\""
par VeryLargeNetwork.h1.lo[0] recordPcap false
par VeryLargeNetwork.h1.lo[0] numPcapRecorders 0
par VeryLargeNetwork.h1.lo[0] interfaceTableModule "\"VeryLargeNetwork.h1.interfaceTable\""
scalar VeryLargeNetwork.h1.lo[0] packetDropInterfaceDown:count 0
attr interpolationmode none
attr recordingmode count
attr source packetDropReasonIsInterfaceDown(packetDropped)
attr title "packet drops: interface down, count"
scalar VeryLargeNetwork.h1.lo[0] packetDropInterfaceDown:sum(packetBytes) 0
attr interpolationmode none
attr recordingmode sum(packetBytes)
attr source packetDropReasonIsInterfaceDown(packetDropped)
attr title "packet drops: interface down, sum(packetBytes)"
scalar VeryLargeNetwork.h1.lo[0] packetDropNoCarrier:count 0
attr interpolationmode none
attr recordingmode count
attr source packetDropReasonIsNoCarrier(packetDropped)
attr title "packet drops: no carrier, count"
scalar VeryLargeNetwork.h1.lo[0] packetDropNoCarrier:sum(packetBytes) 0
attr interpolationmode none
attr recordingmode sum(packetBytes)
attr source packetDropReasonIsNoCarrier(packetDropped)
attr title "packet drops: no carrier, sum(packetBytes)"
par VeryLargeNetwork.h1.eth[0].mac.phys$o.channel typename "\"ned.IdealChannel\""
par VeryLargeNetwork.h1.eth[0].phys$i.channel typename "\"ned.IdealChannel\""
par VeryLargeNetwork.h1.eth[0].upperLayerIn.channel typename "\"ned.IdealChannel\""
par VeryLargeNetwork.h1.eth[0].mac.upperLayerOut.channel typename "\"ned.IdealChannel\""
par VeryLargeNetwork.h1.eth[0].queue typename "\"inet.linklayer.ethernet.common.EthernetQueue\""
par VeryLargeNetwork.h1.eth[0].queue displayStringTextFormat "\"contains %p pk (%l) pushed %u\\npulled %o removed %r dropped %d\""
par VeryLargeNetwork.h1.eth[0].queue packetCapacity 1000
par VeryLargeNetwork.h1.eth[0].queue dataCapacity -1b
attr unit b
par VeryLargeNetwork.h1.eth[0].queue dropperClass "\"inet::queueing::PacketAtCollectionEndDropper\""
par VeryLargeNetwork.h1.eth[0].queue comparatorClass "\"inet::EthernetFrameTypeComparator\""
par VeryLargeNetwork.h1.eth[0].queue bufferModule "\"\""
scalar VeryLargeNetwork.h1.eth[0].queue queueLength:last 0
attr autoWarmupFilter false
attr interpolationmode sample-hold
attr recordingmode last
attr source "warmup(atomic(constant0(packetPushEnded) + count(packetPushStarted) - count(packetPulled) - count(packetRemoved) - count(packetDropped)))"
attr title "queue length, last"
attr unit pk
scalar VeryLargeNetwork.h1.eth[0].queue queueLength:max 0
attr autoWarmupFilter false
attr interpolationmode sample-hold
attr recordingmode max
attr source "warmup(atomic(constant0(packetPushEnded) + count(packetPushStarted) - count(packetPulled) - count(packetRemoved) - count(packetDropped)))"
attr title "queue length, max"
attr unit pk
scalar VeryLargeNetwork.h1.eth[0].queue queueLength:timeavg 0
attr autoWarmupFilter false
attr interpolationmode sample-hold
attr recordingmode timeavg
attr source "warmup(atomic(constant0(packetPushEnded) + count(packetPushStarted) - count(packetPulled) - count(packetRemoved) - count(packetDropped)))"
attr title "queue length, timeavg"
attr unit pk
scalar VeryLargeNetwork.h1.eth[0].queue queueBitLength:last 0
attr autoWarmupFilter false
attr interpolationmode sample-hold
attr recordingmode last
attr source "warmup(atomic(constant0(packetPushEnded) + sum(packetLength(packetPushStarted)) - sum(packetLength(packetPulled)) - sum(packetLength(packetRemoved)) - sum(packetLength(packetDropped))))"
attr title "queue bit length, last"
attr unit b
scalar VeryLargeNetwork.h1.eth[0].queue queueBitLength:max 0
attr autoWarmupFilter false
attr interpolationmode sample-hold
attr recordingmode max
attr source "warmup(atomic(constant0(packetPushEnded) + sum(packetLength(packetPushStarted)) - sum(packetLength(packetPulled)) - sum(packetLength(packetRemoved)) - sum(packetLength(packetDropped))))"
attr title "queue bit length, max"
attr unit b
scalar VeryLargeNetwork.h1.eth[0].queue queueBitLength:timeavg 0
attr autoWarmupFilter false
attr interpolationmode sample-hold
attr recordingmode timeavg
attr source "warmup(atomic(constant0(packetPushEnded) + sum(packetLength(packetPushStarted)) - sum(packetLength(packetPulled)) - sum(packetLength(packetRemoved)) - sum(packetLength(packetDropped))))"
attr title "queue bit length, timeavg"
attr unit b
statistic VeryLargeNetwork.h1.eth[0].queue queueingTime:histogram
field count 0
field mean nan
field stddev nan
field min nan
field max nan
field sum 0
field sqrsum 0
attr interpolationmode none
attr recordingmode histogram
attr source queueingTime(packetPulled)
attr title "queueing times"
attr unit s
bin	-inf	0
bin	0	0
bin	1	0
scalar VeryLargeNetwork.h1.eth[0].queue outgoingPackets:count 0
attr recordingmode count
attr source packetPulled
attr title "outgoing packets, count"
attr unit pk
scalar VeryLargeNetwork.h1.eth[0].queue outgoingPacketLengths:sum 0
attr interpolationmode none
attr recordingmode sum
attr source packetLength(packetPulled)
attr title "outgoing packet lengths, sum"
attr unit b
statistic VeryLargeNetwork.h1.eth[0].queue outgoingPacketLengths:histogram
field count 0
field mean nan
field stddev nan
field min nan
field max nan
field sum 0
field sqrsum 0
attr interpolationmode none
attr recordingmode histogram
attr source packetLength(packetPulled)
attr title "outgoing packet lengths"
attr unit b
bin	-inf	0
bin	0	0
bin	1	0
statistic VeryLargeNetwork.h1.eth[0].queue flowQueueingTime:histogram
field count 0
field mean nan
field stddev nan
field min nan
field max nan
field sum 0
field sqrsum 0
attr interpolationmode none
attr recordingmode histogram
attr source queueingTime(demuxFlow(packetPulled))
attr title "flow queueing times"
attr unit s
bin	-inf	0
bin	0	0
bin	1	0
scalar VeryLargeNetwork.h1.eth[0].queue incomingPackets:count 0
attr recordingmode count
attr source packetPushStarted
attr title "incoming packets, count"
attr unit pk
scalar VeryLargeNetwork.h1.eth[0].queue incomingPacketLengths:sum 0
attr interpolationmode none
attr recordingmode sum
attr source packetLength(packetPushStarted)
attr title "incoming packet lengths, sum"
attr unit b
statistic VeryLargeNetwork.h1.eth[0].queue incomingPacketLengths:histogram
field count 0
field mean nan
field stddev nan
field min nan
field max nan
field sum 0
field sqrsum 0
attr interpolationmode none
attr recordingmode histogram
attr source packetLength(packetPushStarted)
attr title "incoming packet lengths"
attr unit b
bin	-inf	0
bin	0	0
bin	1	0
scalar VeryLargeNetwork.h1.eth[0].queue droppedPacketsQueueOverflow:count 0
attr interpolationmode none
attr recordingmode count
attr source packetDropReasonIsQueueOverflow(packetDropped)
attr title "dropped packets: queue overflow, count"
attr unit pk
scalar VeryLargeNetwork.h1.eth[0].queue droppedPacketLengthsQueueOverflow:sum 0
attr interpolationmode none
attr recordingmode sum
attr source packetLength(packetDropReasonIsQueueOverflow(packetDropped))
attr title "dropped packet lengths: queue overflow, sum"
attr unit b
par VeryLargeNetwork.h1.eth[0].mac typename "\"inet.linklayer.ethernet.basic.EthernetMac\""
par VeryLargeNetwork.h1.eth[0].mac interfaceTableModule "\"VeryLargeNetwork.h1.interfaceTable\""
par VeryLargeNetwork.h1.eth[0].mac displayStringTextFormat "\"rate: %b\\nsent: %s, rcvd: %r\\nqueue: %q, drop: %d\""
par VeryLargeNetwork.h1.eth[0].mac sendRawBytes false
par VeryLargeNetwork.h1.eth[0].mac promiscuous false
par VeryLargeNetwork.h1.eth[0].mac duplexMode true
par VeryLargeNetwork.h1.eth[0].mac mtu 1500B
attr unit B
par VeryLargeNetwork.h1.eth[0].mac fcsMode "\"declared\""
attr enum declared,computed
par VeryLargeNetwork.h1.eth[0].mac stopOperationExtraTime -1s
attr unit s
par VeryLargeNetwork.h1.eth[0].mac stopOperationTimeout 2s
attr unit s
scalar VeryLargeNetwork.h1.eth[0].mac "simulated time" 7383.117818482
scalar VeryLargeNetwork.h1.eth[0].mac full-duplex 1
scalar VeryLargeNetwork.h1.eth[0].mac "frames/sec sent" 0
scalar VeryLargeNetwork.h1.eth[0].mac "frames/sec rcvd" 0.0001354441341159
scalar VeryLargeNetwork.h1.eth[0].mac "bits/sec sent" 0
scalar VeryLargeNetwork.h1.eth[0].mac "bits/sec rcvd" 0.075848715104907
scalar VeryLargeNetwork.h1.eth[0].mac "rx channel idle (%)" 99.999999915483
scalar VeryLargeNetwork.h1.eth[0].mac "rx channel utilization (%)" 8.4517139688325e-08
scalar VeryLargeNetwork.h1.eth[0].mac txPk:count 0
attr interpolationmode none
attr recordingmode count
attr source packetSentToLower
attr title "packets transmitted, count"
scalar VeryLargeNetwork.h1.eth[0].mac txPk:sum(packetBytes) 0
attr interpolationmode none
attr recordingmode sum(packetBytes)
attr source packetSentToLower
attr title "packets transmitted, sum(packetBytes)"
scalar VeryLargeNetwork.h1.eth[0].mac packetReceivedFromUpper:count 0
attr interpolationmode none
attr recordingmode count
attr source packetReceivedFromUpper
attr title "packet bytes from higher layer, count"
scalar VeryLargeNetwork.h1.eth[0].mac packetReceivedFromUpper:sum(packetBytes) 0
attr interpolationmode none
attr recordingmode sum(packetBytes)
attr source packetReceivedFromUpper
attr title "packet bytes from higher layer, sum(packetBytes)"
scalar VeryLargeNetwork.h1.eth[0].mac passedUpPk:count 1
attr interpolationmode none
attr recordingmode count
attr source packetSentToUpper
attr title "packets passed to higher layer, count"
scalar VeryLargeNetwork.h1.eth[0].mac passedUpPk:sum(packetBytes) 70
attr interpolationmode none
attr recordingmode sum(packetBytes)
attr source packetSentToUpper
attr title "packets passed to higher layer, sum(packetBytes)"
scalar VeryLargeNetwork.h1.eth[0].mac packetDropIncorrectlyReceived:count 0
attr interpolationmode none
attr recordingmode count
attr source packetDropReasonIsIncorrectlyReceived(packetDropped)
attr title "packet drop: incorrectly received, count"
scalar VeryLargeNetwork.h1.eth[0].mac packetDropIncorrectlyReceived:sum(packetBytes) 0
attr interpolationmode none
attr recordingmode sum(packetBytes)
attr source packetDropReasonIsIncorrectlyReceived(packetDropped)
attr title "packet drop: incorrectly received, sum(packetBytes)"
scalar VeryLargeNetwork.h1.eth[0].mac packetDropInterfaceDown:count 0
attr interpolationmode none
attr recordingmode count
attr source packetDropReasonIsInterfaceDown(packetDropped)
attr title "packet drop: interface down, count"
scalar VeryLargeNetwork.h1.eth[0].mac packetDropInterfaceDown:sum(packetBytes) 0
attr interpolationmode none
attr recordingmode sum(packetBytes)
attr source packetDropReasonIsInterfaceDown(packetDropped)
attr title "packet drop: interface down, sum(packetBytes)"
scalar VeryLargeNetwork.h1.eth[0].mac packetDropNotAddressedToUs:count 0
attr interpolationmode none
attr recordingmode count
attr source packetDropReasonIsNotAddressedToUs(packetDropped)
attr title "packet drop: not addressed to us, count"
scalar VeryLargeNetwork.h1.eth[0].mac packetDropNotAddressedToUs:sum(packetBytes) 0
attr interpolationmode none
attr recordingmode sum(packetBytes)
attr source packetDropReasonIsNotAddressedToUs(packetDropped)
attr title "packet drop: not addressed to us, sum(packetBytes)"
scalar VeryLargeNetwork.h1.eth[0].mac rxPausePkUnits:count 0
attr interpolationmode none
attr recordingmode count
attr title "pause units received, count"
scalar VeryLargeNetwork.h1.eth[0].mac rxPausePkUnits:sum 0
attr interpolationmode none
attr recordingmode sum
attr title "pause units received, sum"
scalar VeryLargeNetwork.h1.eth[0].mac txPausePkUnits:count 0
attr interpolationmode none
attr recordingmode count
attr title "pause units sent, count"
scalar VeryLargeNetwork.h1.eth[0].mac txPausePkUnits:sum 0
attr interpolationmode none
attr recordingmode sum
attr title "pause units sent, sum"
scalar VeryLargeNetwork.h1.eth[0].mac rxPkOk:count 1
attr interpolationmode none
attr recordingmode count
attr source rxPkOk
attr title "packets received OK, count"
scalar VeryLargeNetwork.h1.eth[0].mac rxPkOk:sum(packetBytes) 70
attr interpolationmode none
attr recordingmode sum(packetBytes)
attr source rxPkOk
attr title "packets received OK, sum(packetBytes)"
par VeryLargeNetwork.h1.eth[0] typename "\"inet.linklayer.ethernet.EthernetInterface\""
par VeryLargeNetwork.h1.eth[0] displayStringTextFormat "\"%a (%i)\\n%m\""
par VeryLargeNetwork.h1.eth[0] recordPcap false
par VeryLargeNetwork.h1.eth[0] numPcapRecorders 0
par VeryLargeNetwork.h1.eth[0] interfaceTableModule "\"VeryLargeNetwork.h1.interfaceTable\""
par VeryLargeNetwork.h1.eth[0] protocol "\"ethernetmac\""
par VeryLargeNetwork.h1.eth[0] address "\"0A-AA-00-00-00-01\""
attr mutable ""
par VeryLargeNetwork.h1.eth[0] duplexMode true
par VeryLargeNetwork.h1.eth[0] csmacdSupport false
par VeryLargeNetwork.h1.eth[0] bitrate 0bps
attr unit bps
par VeryLargeNetwork.h1.eth[0] fcsMode "\"declared\""
attr enum declared,computed
scalar VeryLargeNetwork.h1.eth[0] packetDropInterfaceDown:count 0
attr interpolationmode none
attr recordingmode count
attr source packetDropReasonIsInterfaceDown(packetDropped)
attr title "packet drops: interface down, count"
scalar VeryLargeNetwork.h1.eth[0] packetDropInterfaceDown:sum(packetBytes) 0
attr interpolationmode none
attr recordingmode sum(packetBytes)
attr source packetDropReasonIsInterfaceDown(packetDropped)
attr title "packet drops: interface down, sum(packetBytes)"
scalar VeryLargeNetwork.h1.eth[0] packetDropNoCarrier:count 0
attr interpolationmode none
attr recordingmode count
attr source packetDropReasonIsNoCarrier(packetDropped)
attr title "packet drops: no carrier, count"
scalar VeryLargeNetwork.h1.eth[0] packetDropNoCarrier:sum(packetBytes) 0
attr interpolationmode none
attr recordingmode sum(packetBytes)
attr source packetDropReasonIsNoCarrier(packetDropped)
attr title "packet drops: no carrier, sum(packetBytes)"
par VeryLargeNetwork.h1.ipv4.transportIn.channel typename "\"ned.IdealChannel\""
par VeryLargeNetwork.h1.ipv4.up.out[0].channel typename "\"ned.IdealChannel\""
par VeryLargeNetwork.h1.ipv4.lp.out[2].channel typename "\"ned.IdealChannel\""
par VeryLargeNetwork.h1.ipv4.ifIn.channel typename "\"ned.IdealChannel\""
par VeryLargeNetwork.h1.ipv4.configurator typename "\"inet.networklayer.configurator.ipv4.Ipv4NodeConfigurator\""
par VeryLargeNetwork.h1.ipv4.configurator interfaceTableModule "\"VeryLargeNetwork.h1.interfaceTable\""
par VeryLargeNetwork.h1.ipv4.configurator routingTableModule "\"VeryLargeNetwork.h1.ipv4.routingTable\""
par VeryLargeNetwork.h1.ipv4.configurator networkConfiguratorModule "\"configurator\""
par VeryLargeNetwork.h1.ipv4.configurator configureRoutingTable true
par VeryLargeNetwork.h1.ipv4.routingTable typename "\"inet.networklayer.ipv4.Ipv4RoutingTable\""
par VeryLargeNetwork.h1.ipv4.routingTable interfaceTableModule "\"VeryLargeNetwork.h1.interfaceTable\""
par VeryLargeNetwork.h1.ipv4.routingTable routerId "\"auto\""
par VeryLargeNetwork.h1.ipv4.routingTable netmaskRoutes "\"*\""
par VeryLargeNetwork.h1.ipv4.routingTable forwarding false
par VeryLargeNetwork.h1.ipv4.routingTable multicastForwarding false
par VeryLargeNetwork.h1.ipv4.routingTable useAdminDist false
par VeryLargeNetwork.h1.ipv4.routingTable routingFile "\"\""
par VeryLargeNetwork.h1.ipv4.natTable typename "\"inet.networklayer.ipv4.Ipv4NatTable\""
par VeryLargeNetwork.h1.ipv4.natTable networkProtocolModule "\"^.ip\""
par VeryLargeNetwork.h1.ipv4.natTable config "<config/> at content:1"
par VeryLargeNetwork.h1.ipv4.up typename "\"inet.common.MessageDispatcher\""
par VeryLargeNetwork.h1.ipv4.up displayStringTextFormat "\"processed %p pk (%l)\""
par VeryLargeNetwork.h1.ipv4.up forwardServiceRegistration true
par VeryLargeNetwork.h1.ipv4.up forwardProtocolRegistration true
par VeryLargeNetwork.h1.ipv4.igmp typename "\"inet.networklayer.ipv4.Igmpv2\""
par VeryLargeNetwork.h1.ipv4.igmp interfaceTableModule "\"VeryLargeNetwork.h1.interfaceTable\""
par VeryLargeNetwork.h1.ipv4.igmp routingTableModule "\"VeryLargeNetwork.h1.ipv4.routingTable\""
par VeryLargeNetwork.h1.ipv4.igmp crcMode "\"declared\""
attr enum declared,computed
par VeryLargeNetwork.h1.ipv4.igmp enabled true
par VeryLargeNetwork.h1.ipv4.igmp robustnessVariable 2
par VeryLargeNetwork.h1.ipv4.igmp queryInterval 125s
attr unit s
par VeryLargeNetwork.h1.ipv4.igmp queryResponseInterval 10s
attr unit s
par VeryLargeNetwork.h1.ipv4.igmp groupMembershipInterval 260s
attr unit s
par VeryLargeNetwork.h1.ipv4.igmp otherQuerierPresentInterval 255s
attr unit s
par VeryLargeNetwork.h1.ipv4.igmp startupQueryInterval 31.25s
attr unit s
par VeryLargeNetwork.h1.ipv4.igmp startupQueryCount 2
par VeryLargeNetwork.h1.ipv4.igmp lastMemberQueryInterval 1s
attr unit s
par VeryLargeNetwork.h1.ipv4.igmp lastMemberQueryCount 2
par VeryLargeNetwork.h1.ipv4.igmp unsolicitedReportInterval 10s
attr unit s
par VeryLargeNetwork.h1.ipv4.icmp typename "\"inet.networklayer.ipv4.Icmp\""
par VeryLargeNetwork.h1.ipv4.icmp interfaceTableModule "\"VeryLargeNetwork.h1.interfaceTable\""
par VeryLargeNetwork.h1.ipv4.icmp routingTableModule "\"VeryLargeNetwork.h1.ipv4.routingTable\""
par VeryLargeNetwork.h1.ipv4.icmp crcMode "\"declared\""
attr enum declared,computed
attr mutable ""
par VeryLargeNetwork.h1.ipv4.icmp quoteLength 8B
attr mutable ""
attr unit B
par VeryLargeNetwork.h1.ipv4.mp typename "\"inet.common.MessageDispatcher\""
par VeryLargeNetwork.h1.ipv4.mp displayStringTextFormat "\"processed %p pk (%l)\""
par VeryLargeNetwork.h1.ipv4.mp forwardServiceRegistration true
par VeryLargeNetwork.h1.ipv4.mp forwardProtocolRegistration true
par VeryLargeNetwork.h1.ipv4.ip typename "\"inet.networklayer.ipv4.Ipv4\""
par VeryLargeNetwork.h1.ipv4.ip interfaceTableModule "\"VeryLargeNetwork.h1.interfaceTable\""
par VeryLargeNetwork.h1.ipv4.ip routingTableModule "\"VeryLargeNetwork.h1.ipv4.routingTable\""
par VeryLargeNetwork.h1.ipv4.ip arpModule "\"VeryLargeNetwork.h1.ipv4.arp\""
par VeryLargeNetwork.h1.ipv4.ip icmpModule "\"VeryLargeNetwork.h1.ipv4.icmp\""
par VeryLargeNetwork.h1.ipv4.ip crcMode "\"declared\""
attr enum declared,computed
par VeryLargeNetwork.h1.ipv4.ip timeToLive 32
par VeryLargeNetwork.h1.ipv4.ip multicastTimeToLive 32
par VeryLargeNetwork.h1.ipv4.ip fragmentTimeout 60s
attr unit s
par VeryLargeNetwork.h1.ipv4.ip limitedBroadcast false
par VeryLargeNetwork.h1.ipv4.ip directBroadcastInterfaces "\"\""
scalar VeryLargeNetwork.h1.ipv4.ip packetDropAddressResolutionFailed:count 0
attr interpolationmode none
attr recordingmode count
attr source packetDropReasonIsAddressResolutionFailed(packetDropped)
attr title "packet drop: address resolution failed, count"
scalar VeryLargeNetwork.h1.ipv4.ip packetDropAddressResolutionFailed:sum(packetBytes) 0
attr interpolationmode none
attr recordingmode sum(packetBytes)
attr source packetDropReasonIsAddressResolutionFailed(packetDropped)
attr title "packet drop: address resolution failed, sum(packetBytes)"
scalar VeryLargeNetwork.h1.ipv4.ip packetDropHopLimitReached:count 0
attr interpolationmode none
attr recordingmode count
attr source packetDropReasonIsHopLimitReached(packetDropped)
attr title "packet drop: hop limit reached, count"
scalar VeryLargeNetwork.h1.ipv4.ip packetDropHopLimitReached:sum(packetBytes) 0
attr interpolationmode none
attr recordingmode sum(packetBytes)
attr source packetDropReasonIsHopLimitReached(packetDropped)
attr title "packet drop: hop limit reached, sum(packetBytes)"
scalar VeryLargeNetwork.h1.ipv4.ip packetDropForwardingDisabled:count 0
attr interpolationmode none
attr recordingmode count
attr source packetDropReasonIsForwardingDisabled(packetDropped)
attr title "packet drop: forwarding disabled, count"
scalar VeryLargeNetwork.h1.ipv4.ip packetDropForwardingDisabled:sum(packetBytes) 0
attr interpolationmode none
attr recordingmode sum(packetBytes)
attr source packetDropReasonIsForwardingDisabled(packetDropped)
attr title "packet drop: forwarding disabled, sum(packetBytes)"
scalar VeryLargeNetwork.h1.ipv4.ip packetDropNoInterfaceFound:count 0
attr interpolationmode none
attr recordingmode count
attr source packetDropReasonIsNoInterfaceFound(packetDropped)
attr title "packet drop: no interface found, count"
scalar VeryLargeNetwork.h1.ipv4.ip packetDropNoInterfaceFound:sum(packetBytes) 0
attr interpolationmode none
attr recordingmode sum(packetBytes)
attr source packetDropReasonIsNoInterfaceFound(packetDropped)
attr title "packet drop: no interface found, sum(packetBytes)"
scalar VeryLargeNetwork.h1.ipv4.ip packetDropNoRouteFound:count 0
attr interpolationmode none
attr recordingmode count
attr source packetDropReasonIsNoRouteFound(packetDropped)
attr title "packet drop: no route found, count"
scalar VeryLargeNetwork.h1.ipv4.ip packetDropNoRouteFound:sum(packetBytes) 0
attr interpolationmode none
attr recordingmode sum(packetBytes)
attr source packetDropReasonIsNoRouteFound(packetDropped)
attr title "packet drop: no route found, sum(packetBytes)"
scalar VeryLargeNetwork.h1.ipv4.ip packetDropUndefined:count 0
attr interpolationmode none
attr recordingmode count
attr source packetDropReasonIsUndefined(packetDropped)
attr title "packet drop: undefined, count"
scalar VeryLargeNetwork.h1.ipv4.ip packetDropUndefined:sum(packetBytes) 0
attr interpolationmode none
attr recordingmode sum(packetBytes)
attr source packetDropReasonIsUndefined(packetDropped)
attr title "packet drop: undefined, sum(packetBytes)"
par VeryLargeNetwork.h1.ipv4.arp typename "\"inet.networklayer.arp.ipv4.Arp\""
par VeryLargeNetwork.h1.ipv4.arp interfaceTableModule "\"VeryLargeNetwork.h1.interfaceTable\""
par VeryLargeNetwork.h1.ipv4.arp routingTableModule "\"VeryLargeNetwork.h1.ipv4.routingTable\""
par VeryLargeNetwork.h1.ipv4.arp retryTimeout 1s
attr unit s
par VeryLargeNetwork.h1.ipv4.arp retryCount 3
par VeryLargeNetwork.h1.ipv4.arp cacheTimeout 120s
attr unit s
par VeryLargeNetwork.h1.ipv4.arp proxyArpInterfaces "\"\""
scalar VeryLargeNetwork.h1.ipv4.arp arpReplySent:count 0
attr recordingmode count
attr source arpReplySent
attr title "ARP replies sent, count"
scalar VeryLargeNetwork.h1.ipv4.arp arpReplySent:sum(packetBytes) 0
attr recordingmode sum(packetBytes)
attr source arpReplySent
attr title "ARP replies sent, sum(packetBytes)"
scalar VeryLargeNetwork.h1.ipv4.arp arpRequestSent:count 0
attr recordingmode count
attr source arpRequestSent
attr title "ARP request sent, count"
scalar VeryLargeNetwork.h1.ipv4.arp arpRequestSent:sum(packetBytes) 0
attr recordingmode sum(packetBytes)
attr source arpRequestSent
attr title "ARP request sent, sum(packetBytes)"
scalar VeryLargeNetwork.h1.ipv4.arp arpResolutionFailed:count 0
attr recordingmode count
attr title "ARP failed resolutions, count"
scalar VeryLargeNetwork.h1.ipv4.arp arpResolutionCompleted:count 0
attr recordingmode count
attr title "ARP completed resolutions, count"
scalar VeryLargeNetwork.h1.ipv4.arp arpResolutionInitiated:count 0
attr recordingmode count
attr title "ARP initiated resolutions, count"
par VeryLargeNetwork.h1.ipv4.lp typename "\"inet.common.MessageDispatcher\""
par VeryLargeNetwork.h1.ipv4.lp displayStringTextFormat "\"processed %p pk (%l)\""
par VeryLargeNetwork.h1.ipv4.lp forwardServiceRegistration true
par VeryLargeNetwork.h1.ipv4.lp forwardProtocolRegistration true
par VeryLargeNetwork.h1.ipv4 typename "\"inet.networklayer.ipv4.Ipv4NetworkLayer\""
par VeryLargeNetwork.h1.ipv4 forwarding false
par VeryLargeNetwork.h1.ipv4 multicastForwarding false
par VeryLargeNetwork.h1.ipv4 interfaceTableModule "\"VeryLargeNetwork.h1.interfaceTable\""
par VeryLargeNetwork.h1.ipv4 displayStringTextFormat "\"%i\""
par VeryLargeNetwork.h1.nl typename "\"inet.common.MessageDispatcher\""
par VeryLargeNetwork.h1.nl displayStringTextFormat "\"processed %p pk (%l)\""
par VeryLargeNetwork.h1.nl forwardServiceRegistration true
par VeryLargeNetwork.h1.nl forwardProtocolRegistration true
par VeryLargeNetwork.h1.udp typename "\"inet.transportlayer.udp.Udp\""
par VeryLargeNetwork.h1.udp interfaceTableModule "\"VeryLargeNetwork.h1.interfaceTable\""
par VeryLargeNetwork.h1.udp icmpModule "\"^.ipv4.icmp\""
par VeryLargeNetwork.h1.udp icmpv6Module "\"^.ipv6.icmpv6\""
par VeryLargeNetwork.h1.udp crcMode "\"declared\""
attr enum disabled,declared,computed
par VeryLargeNetwork.h1.udp defaultMulticastLoop true
scalar VeryLargeNetwork.h1.udp packetReceived:count 0
attr interpolationmode none
attr recordingmode count
attr source packetReceived
attr title "packets received, count"
scalar VeryLargeNetwork.h1.udp packetReceived:sum(packetBytes) 0
attr interpolationmode none
attr recordingmode sum(packetBytes)
attr source packetReceived
attr title "packets received, sum(packetBytes)"
scalar VeryLargeNetwork.h1.udp packetSent:count 0
attr interpolationmode none
attr recordingmode count
attr source packetSent
attr title "packets sent, count"
scalar VeryLargeNetwork.h1.udp packetSent:sum(packetBytes) 0
attr interpolationmode none
attr recordingmode sum(packetBytes)
attr source packetSent
attr title "packets sent, sum(packetBytes)"
scalar VeryLargeNetwork.h1.udp passedUpPk:count 0
attr interpolationmode none
attr recordingmode count
attr source packetSentToUpper
attr title "packets passed up, count"
scalar VeryLargeNetwork.h1.udp droppedPkWrongPort:count 0
attr interpolationmode none
attr recordingmode count
attr source packetDropReasonIsNoPortFound(packetDropped)
attr title "packets dropped (wrong port), count"
scalar VeryLargeNetwork.h1.udp droppedPkBadChecksum:count 0
attr interpolationmode none
attr recordingmode count
attr source packetDropReasonIsIncorrectlyReceived(packetDropped)
attr title "packets dropped (checksum error), count"
par VeryLargeNetwork.h1.tcp typename "\"inet.transportlayer.tcp.Tcp\""
par VeryLargeNetwork.h1.tcp crcMode "\"declared\""
attr enum declared,computed
par VeryLargeNetwork.h1.tcp advertisedWindow 7504
par VeryLargeNetwork.h1.tcp delayedAcksEnabled false
par VeryLargeNetwork.h1.tcp nagleEnabled true
par VeryLargeNetwork.h1.tcp limitedTransmitEnabled false
par VeryLargeNetwork.h1.tcp increasedIWEnabled false
par VeryLargeNetwork.h1.tcp sackSupport false
par VeryLargeNetwork.h1.tcp windowScalingSupport false
par VeryLargeNetwork.h1.tcp windowScalingFactor -1
par VeryLargeNetwork.h1.tcp timestampSupport false
par VeryLargeNetwork.h1.tcp mss 536
par VeryLargeNetwork.h1.tcp msl 120s
attr unit s
par VeryLargeNetwork.h1.tcp tcpAlgorithmClass "\"TcpReno\""
par VeryLargeNetwork.h1.tcp useDataNotification false
par VeryLargeNetwork.h1.tcp dupthresh 3
par VeryLargeNetwork.h1.tcp initialSsthresh 4294967295
par VeryLargeNetwork.h1.tcp stopOperationExtraTime 0s
attr unit s
par VeryLargeNetwork.h1.tcp stopOperationTimeout 2s
attr unit s
par VeryLargeNetwork.h1.tcp ecnWillingness false
par VeryLargeNetwork.h1.tcp dctcpGamma 0.0625
par VeryLargeNetwork.h1.tn typename "\"inet.common.MessageDispatcher\""
par VeryLargeNetwork.h1.tn displayStringTextFormat "\"processed %p pk (%l)\""
par VeryLargeNetwork.h1.tn forwardServiceRegistration true
par VeryLargeNetwork.h1.tn forwardProtocolRegistration true
par VeryLargeNetwork.h1.at typename "\"inet.common.MessageDispatcher\""
par VeryLargeNetwork.h1.at displayStringTextFormat "\"processed %p pk (%l)\""
par VeryLargeNetwork.h1.at forwardServiceRegistration true
par VeryLargeNetwork.h1.at forwardProtocolRegistration true
par VeryLargeNetwork.h1 typename "\"inet.node.inet.StandardHost\""
par VeryLargeNetwork.h1 hasStatus false
par VeryLargeNetwork.h1 osgModel "\"\""
par VeryLargeNetwork.h1 osgModelColor "\"\""
par VeryLargeNetwork.h1 canvasImage "\"\""
par VeryLargeNetwork.h1 canvasImageColor "\"\""
par VeryLargeNetwork.h1 recordPcap false
par VeryLargeNetwork.h1 numPcapRecorders 0
par VeryLargeNetwork.h1 numLoInterfaces 1
par VeryLargeNetwork.h1 numWlanInterfaces 0
par VeryLargeNetwork.h1 numEthInterfaces 0
par VeryLargeNetwork.h1 numPppInterfaces 0
par VeryLargeNetwork.h1 numTunInterfaces 0
par VeryLargeNetwork.h1 numVirtInterfaces 0
par VeryLargeNetwork.h1 fcsMode "\"declared\""
attr enum declared,computed
par VeryLargeNetwork.h1 hasIpv4 true
par VeryLargeNetwork.h1 hasIpv6 false
par VeryLargeNetwork.h1 hasGn false
par VeryLargeNetwork.h1 forwarding false
par VeryLargeNetwork.h1 multicastForwarding false
par VeryLargeNetwork.h1 hasUdp true
par VeryLargeNetwork.h1 hasTcp true
par VeryLargeNetwork.h1 hasSctp false
par VeryLargeNetwork.h1 numApps 0
par VeryLargeNetwork.h2.ethg$i[0].channel typename "\"ned.IdealChannel\""
par VeryLargeNetwork.h2.eth[0].phys$o.channel typename "\"ned.IdealChannel\""
par VeryLargeNetwork.h2.interfaceTable typename "\"inet.networklayer.common.InterfaceTable\""
par VeryLargeNetwork.h2.interfaceTable displayAddresses false
par VeryLargeNetwork.h2.cb typename "\"inet.common.MessageDispatcher\""
par VeryLargeNetwork.h2.cb displayStringTextFormat "\"processed %p pk (%l)\""
par VeryLargeNetwork.h2.cb forwardServiceRegistration true
par VeryLargeNetwork.h2.cb forwardProtocolRegistration true
par VeryLargeNetwork.h2.bl typename "\"inet.common.MessageDispatcher\""
par VeryLargeNetwork.h2.bl displayStringTextFormat "\"processed %p pk (%l)\""
par VeryLargeNetwork.h2.bl forwardServiceRegistration true
par VeryLargeNetwork.h2.bl forwardProtocolRegistration true
par VeryLargeNetwork.h2.ethernet typename "\"inet.linklayer.ethernet.basic.EthernetEncapsulation\""
par VeryLargeNetwork.h2.ethernet registerProtocol true
par VeryLargeNetwork.h2.ethernet interfaceTableModule "\"VeryLargeNetwork.h2.interfaceTable\""
par VeryLargeNetwork.h2.ethernet fcsMode "\"declared\""
attr enum declared,computed
par VeryLargeNetwork.h2.ethernet stopOperationExtraTime -1s
attr unit s
par VeryLargeNetwork.h2.ethernet stopOperationTimeout 2s
attr unit s
scalar VeryLargeNetwork.h2.ethernet decapPk:count 1
attr interpolationmode none
attr recordingmode count
attr source decapPk
attr title "packets decapsulated, count"
scalar VeryLargeNetwork.h2.ethernet decapPk:sum(packetBytes) 52
attr interpolationmode none
attr recordingmode sum(packetBytes)
attr source decapPk
attr title "packets decapsulated, sum(packetBytes)"
scalar VeryLargeNetwork.h2.ethernet encapPk:count 0
attr interpolationmode none
attr recordingmode count
attr source encapPk
attr title "packets encapsulated, count"
scalar VeryLargeNetwork.h2.ethernet encapPk:sum(packetBytes) 0
attr interpolationmode none
attr recordingmode sum(packetBytes)
attr source encapPk
attr title "packets encapsulated, sum(packetBytes)"
scalar VeryLargeNetwork.h2.ethernet pauseSent:count 0
attr recordingmode count
attr title "pause sent, count"
scalar VeryLargeNetwork.h2.ethernet pauseSent:sum 0
attr recordingmode sum
attr title "pause sent, sum"
par VeryLargeNetwork.h2.li typename "\"inet.common.MessageDispatcher\""
par VeryLargeNetwork.h2.li displayStringTextFormat "\"processed %p pk (%l)\""
par VeryLargeNetwork.h2.li forwardServiceRegistration true
par VeryLargeNetwork.h2.li forwardProtocolRegistration true
par VeryLargeNetwork.h2.lo[0].upperLayerIn.channel typename "\"ned.IdealChannel\""
par VeryLargeNetwork.h2.lo[0].lo.upperLayerOut.channel typename "\"ned.IdealChannel\""
par VeryLargeNetwork.h2.lo[0].lo typename "\"inet.linklayer.loopback.Loopback\""
par VeryLargeNetwork.h2.lo[0].lo interfaceTableModule "\"VeryLargeNetwork.h2.interfaceTable\""
par VeryLargeNetwork.h2.lo[0].lo mtu 4470B
attr unit B
scalar VeryLargeNetwork.h2.lo[0].lo rcvdPkFromHl:count 0
attr interpolationmode none
attr recordingmode count
attr source packetReceivedFromUpper
attr title "packets received from higher layer, count"
scalar VeryLargeNetwork.h2.lo[0].lo rcvdPkFromHl:sum(packetBytes) 0
attr interpolationmode none
attr recordingmode sum(packetBytes)
attr source packetReceivedFromUpper
attr title "packets received from higher layer, sum(packetBytes)"
scalar VeryLargeNetwork.h2.lo[0].lo passedUpPk:count 0
attr interpolationmode none
attr recordingmode count
attr source packetSentToUpper
attr title "packets passed to higher layer, count"
scalar VeryLargeNetwork.h2.lo[0].lo passedUpPk:sum(packetBytes) 0
attr interpolationmode none
attr recordingmode sum(packetBytes)
attr source packetSentToUpper
attr title "packets passed to higher layer, sum(packetBytes)"
par VeryLargeNetwork.h2.lo[0] typename "\"inet.linklayer.loopback.LoopbackInterface\""
par VeryLargeNetwork.h2.lo[0] displayStringTextFormat "\"%a (%i)\\n%m\""
par VeryLargeNetwork.h2.lo[0] recordPcap false
par VeryLargeNetwork.h2.lo[0] numPcapRecorders 0
par VeryLargeNetwork.h2.lo[0] interfaceTableModule "\"VeryLargeNetwork.h2.interfaceTable\""
scalar VeryLargeNetwork.h2.lo[0] packetDropInterfaceDown:count 0
attr interpolationmode none
attr recordingmode count
attr source packetDropReasonIsInterfaceDown(packetDropped)
attr title "packet drops: interface down, count"
scalar VeryLargeNetwork.h2.lo[0] packetDropInterfaceDown:sum(packetBytes) 0
attr interpolationmode none
attr recordingmode sum(packetBytes)
attr source packetDropReasonIsInterfaceDown(packetDropped)
attr title "packet drops: interface down, sum(packetBytes)"
scalar VeryLargeNetwork.h2.lo[0] packetDropNoCarrier:count 0
attr interpolationmode none
attr recordingmode count
attr source packetDropReasonIsNoCarrier(packetDropped)
attr title "packet drops: no carrier, count"
scalar VeryLargeNetwork.h2.lo[0] packetDropNoCarrier:sum(packetBytes) 0
attr interpolationmode none
attr recordingmode sum(packetBytes)
attr source packetDropReasonIsNoCarrier(packetDropped)
attr title "packet drops: no carrier, sum(packetBytes)"
par VeryLargeNetwork.h2.eth[0].mac.phys$o.channel typename "\"ned.IdealChannel\""
par VeryLargeNetwork.h2.eth[0].phys$i.channel typename "\"ned.IdealChannel\""
par VeryLargeNetwork.h2.eth[0].upperLayerIn.channel typename "\"ned.IdealChannel\""
par VeryLargeNetwork.h2.eth[0].mac.upperLayerOut.channel typename "\"ned.IdealChannel\""
par VeryLargeNetwork.h2.eth[0].queue typename "\"inet.linklayer.ethernet.common.EthernetQueue\""
par VeryLargeNetwork.h2.eth[0].queue displayStringTextFormat "\"contains %p pk (%l) pushed %u\\npulled %o removed %r dropped %d\""
par VeryLargeNetwork.h2.eth[0].queue packetCapacity 1000
par VeryLargeNetwork.h2.eth[0].queue dataCapacity -1b
attr unit b
par VeryLargeNetwork.h2.eth[0].queue dropperClass "\"inet::queueing::PacketAtCollectionEndDropper\""
par VeryLargeNetwork.h2.eth[0].queue comparatorClass "\"inet::EthernetFrameTypeComparator\""
par VeryLargeNetwork.h2.eth[0].queue bufferModule "\"\""
scalar VeryLargeNetwork.h2.eth[0].queue queueLength:last 0
attr autoWarmupFilter false
attr interpolationmode sample-hold
attr recordingmode last
attr source "warmup(atomic(constant0(packetPushEnded) + count(packetPushStarted) - count(packetPulled) - count(packetRemoved) - count(packetDropped)))"
attr title "queue length, last"
attr unit pk
scalar VeryLargeNetwork.h2.eth[0].queue queueLength:max 0
attr autoWarmupFilter false
attr interpolationmode sample-hold
attr recordingmode max
attr source "warmup(atomic(constant0(packetPushEnded) + count(packetPushStarted) - count(packetPulled) - count(packetRemoved) - count(packetDropped)))"
attr title "queue length, max"
attr unit pk
scalar VeryLargeNetwork.h2.eth[0].queue queueLength:timeavg 0
attr autoWarmupFilter false
attr interpolationmode sample-hold
attr recordingmode timeavg
attr source "warmup(atomic(constant0(packetPushEnded) + count(packetPushStarted) - count(packetPulled) - count(packetRemoved) - count(packetDropped)))"
attr title "queue length, timeavg"
attr unit pk
scalar VeryLargeNetwork.h2.eth[0].queue queueBitLength:last 0
attr autoWarmupFilter false
attr interpolationmode sample-hold
attr recordingmode last
attr source "warmup(atomic(constant0(packetPushEnded) + sum(packetLength(packetPushStarted)) - sum(packetLength(packetPulled)) - sum(packetLength(packetRemoved)) - sum(packetLength(packetDropped))))"
attr title "queue bit length, last"
attr unit b
scalar VeryLargeNetwork.h2.eth[0].queue queueBitLength:max 0
attr autoWarmupFilter false
attr interpolationmode sample-hold
attr recordingmode max
attr source "warmup(atomic(constant0(packetPushEnded) + sum(packetLength(packetPushStarted)) - sum(packetLength(packetPulled)) - sum(packetLength(packetRemoved)) - sum(packetLength(packetDropped))))"
attr title "queue bit length, max"
attr unit b
scalar VeryLargeNetwork.h2.eth[0].queue queueBitLength:timeavg 0
attr autoWarmupFilter false
attr interpolationmode sample-hold
attr recordingmode timeavg
attr source "warmup(atomic(constant0(packetPushEnded) + sum(packetLength(packetPushStarted)) - sum(packetLength(packetPulled)) - sum(packetLength(packetRemoved)) - sum(packetLength(packetDropped))))"
attr title "queue bit length, timeavg"
attr unit b
statistic VeryLargeNetwork.h2.eth[0].queue queueingTime:histogram
field count 0
field mean nan
field stddev nan
field min nan
field max nan
field sum 0
field sqrsum 0
attr interpolationmode none
attr recordingmode histogram
attr source queueingTime(packetPulled)
attr title "queueing times"
attr unit s
bin	-inf	0
bin	0	0
bin	1	0
scalar VeryLargeNetwork.h2.eth[0].queue outgoingPackets:count 0
attr recordingmode count
attr source packetPulled
attr title "outgoing packets, count"
attr unit pk
scalar VeryLargeNetwork.h2.eth[0].queue outgoingPacketLengths:sum 0
attr interpolationmode none
attr recordingmode sum
attr source packetLength(packetPulled)
attr title "outgoing packet lengths, sum"
attr unit b
statistic VeryLargeNetwork.h2.eth[0].queue outgoingPacketLengths:histogram
field count 0
field mean nan
field stddev nan
field min nan
field max nan
field sum 0
field sqrsum 0
attr interpolationmode none
attr recordingmode histogram
attr source packetLength(packetPulled)
attr title "outgoing packet lengths"
attr unit b
bin	-inf	0
bin	0	0
bin	1	0
statistic VeryLargeNetwork.h2.eth[0].queue flowQueueingTime:histogram
field count 0
field mean nan
field stddev nan
field min nan
field max nan
field sum 0
field sqrsum 0
attr interpolationmode none
attr recordingmode histogram
attr source queueingTime(demuxFlow(packetPulled))
attr title "flow queueing times"
attr unit s
bin	-inf	0
bin	0	0
bin	1	0
scalar VeryLargeNetwork.h2.eth[0].queue incomingPackets:count 0
attr recordingmode count
attr source packetPushStarted
attr title "incoming packets, count"
attr unit pk
scalar VeryLargeNetwork.h2.eth[0].queue incomingPacketLengths:sum 0
attr interpolationmode none
attr recordingmode sum
attr source packetLength(packetPushStarted)
attr title "incoming packet lengths, sum"
attr unit b
statistic VeryLargeNetwork.h2.eth[0].queue incomingPacketLengths:histogram
field count 0
field mean nan
field stddev nan
field min nan
field max nan
field sum 0
field sqrsum 0
attr interpolationmode none
attr recordingmode histogram
attr source packetLength(packetPushStarted)
attr title "incoming packet lengths"
attr unit b
bin	-inf	0
bin	0	0
bin	1	0
scalar VeryLargeNetwork.h2.eth[0].queue droppedPacketsQueueOverflow:count 0
attr interpolationmode none
attr recordingmode count
attr source packetDropReasonIsQueueOverflow(packetDropped)
attr title "dropped packets: queue overflow, count"
attr unit pk
scalar VeryLargeNetwork.h2.eth[0].queue droppedPacketLengthsQueueOverflow:sum 0
attr interpolationmode none
attr recordingmode sum
attr source packetLength(packetDropReasonIsQueueOverflow(packetDropped))
attr title "dropped packet lengths: queue overflow, sum"
attr unit b
par VeryLargeNetwork.h2.eth[0].mac typename "\"inet.linklayer.ethernet.basic.EthernetMac\""
par VeryLargeNetwork.h2.eth[0].mac interfaceTableModule "\"VeryLargeNetwork.h2.interfaceTable\""
par VeryLargeNetwork.h2.eth[0].mac displayStringTextFormat "\"rate: %b\\nsent: %s, rcvd: %r\\nqueue: %q, drop: %d\""
par VeryLargeNetwork.h2.eth[0].mac sendRawBytes false
par VeryLargeNetwork.h2.eth[0].mac promiscuous false
par VeryLargeNetwork.h2.eth[0].mac duplexMode true
par VeryLargeNetwork.h2.eth[0].mac mtu 1500B
attr unit B
par VeryLargeNetwork.h2.eth[0].mac fcsMode "\"declared\""
attr enum declared,computed
par VeryLargeNetwork.h2.eth[0].mac stopOperationExtraTime -1s
attr unit s
par VeryLargeNetwork.h2.eth[0].mac stopOperationTimeout 2s
attr unit s
scalar VeryLargeNetwork.h2.eth[0].mac "simulated time" 7383.117818482
scalar VeryLargeNetwork.h2.eth[0].mac full-duplex 1
scalar VeryLargeNetwork.h2.eth[0].mac "frames/sec sent" 0
scalar VeryLargeNetwork.h2.eth[0].mac "frames/sec rcvd" 0.0001354441341159
scalar VeryLargeNetwork.h2.eth[0].mac "bits/sec sent" 0
scalar VeryLargeNetwork.h2.eth[0].mac "bits/sec rcvd" 0.075848715104907
scalar VeryLargeNetwork.h2.eth[0].mac "rx channel idle (%)" 99.999999915483
scalar VeryLargeNetwork.h2.eth[0].mac "rx channel utilization (%)" 8.4517139688325e-08
scalar VeryLargeNetwork.h2.eth[0].mac txPk:count 0
attr interpolationmode none
attr recordingmode count
attr source packetSentToLower
attr title "packets transmitted, count"
scalar VeryLargeNetwork.h2.eth[0].mac txPk:sum(packetBytes) 0
attr interpolationmode none
attr recordingmode sum(packetBytes)
attr source packetSentToLower
attr title "packets transmitted, sum(packetBytes)"
scalar VeryLargeNetwork.h2.eth[0].mac packetReceivedFromUpper:count 0
attr interpolationmode none
attr recordingmode count
attr source packetReceivedFromUpper
attr title "packet bytes from higher layer, count"
scalar VeryLargeNetwork.h2.eth[0].mac packetReceivedFromUpper:sum(packetBytes) 0
attr interpolationmode none
attr recordingmode sum(packetBytes)
attr source packetReceivedFromUpper
attr title "packet bytes from higher layer, sum(packetBytes)"
scalar VeryLargeNetwork.h2.eth[0].mac passedUpPk:count 1
attr interpolationmode none
attr recordingmode count
attr source packetSentToUpper
attr title "packets passed to higher layer, count"
scalar VeryLargeNetwork.h2.eth[0].mac passedUpPk:sum(packetBytes) 70
attr interpolationmode none
attr recordingmode sum(packetBytes)
attr source packetSentToUpper
attr title "packets passed to higher layer, sum(packetBytes)"
scalar VeryLargeNetwork.h2.eth[0].mac packetDropIncorrectlyReceived:count 0
attr interpolationmode none
attr recordingmode count
attr source packetDropReasonIsIncorrectlyReceived(packetDropped)
attr title "packet drop: incorrectly received, count"
scalar VeryLargeNetwork.h2.eth[0].mac packetDropIncorrectlyReceived:sum(packetBytes) 0
attr interpolationmode none
attr recordingmode sum(packetBytes)
attr source packetDropReasonIsIncorrectlyReceived(packetDropped)
attr title "packet drop: incorrectly received, sum(packetBytes)"
scalar VeryLargeNetwork.h2.eth[0].mac packetDropInterfaceDown:count 0
attr interpolationmode none
attr recordingmode count
attr source packetDropReasonIsInterfaceDown(packetDropped)
attr title "packet drop: interface down, count"
scalar VeryLargeNetwork.h2.eth[0].mac packetDropInterfaceDown:sum(packetBytes) 0
attr interpolationmode none
attr recordingmode sum(packetBytes)
attr source packetDropReasonIsInterfaceDown(packetDropped)
attr title "packet drop: interface down, sum(packetBytes)"
scalar VeryLargeNetwork.h2.eth[0].mac packetDropNotAddressedToUs:count 0
attr interpolationmode none
attr recordingmode count
attr source packetDropReasonIsNotAddressedToUs(packetDropped)
attr title "packet drop: not addressed to us, count"
scalar VeryLargeNetwork.h2.eth[0].mac packetDropNotAddressedToUs:sum(packetBytes) 0
attr interpolationmode none
attr recordingmode sum(packetBytes)
attr source packetDropReasonIsNotAddressedToUs(packetDropped)
attr title "packet drop: not addressed to us, sum(packetBytes)"
scalar VeryLargeNetwork.h2.eth[0].mac rxPausePkUnits:count 0
attr interpolationmode none
attr recordingmode count
attr title "pause units received, count"
scalar VeryLargeNetwork.h2.eth[0].mac rxPausePkUnits:sum 0
attr interpolationmode none
attr recordingmode sum
attr title "pause units received, sum"
scalar VeryLargeNetwork.h2.eth[0].mac txPausePkUnits:count 0
attr interpolationmode none
attr recordingmode count
attr title "pause units sent, count"
scalar VeryLargeNetwork.h2.eth[0].mac txPausePkUnits:sum 0
attr interpolationmode none
attr recordingmode sum
attr title "pause units sent, sum"
scalar VeryLargeNetwork.h2.eth[0].mac rxPkOk:count 1
attr interpolationmode none
attr recordingmode count
attr source rxPkOk
attr title "packets received OK, count"
scalar VeryLargeNetwork.h2.eth[0].mac rxPkOk:sum(packetBytes) 70
attr interpolationmode none
attr recordingmode sum(packetBytes)
attr source rxPkOk
attr title "packets received OK, sum(packetBytes)"
par VeryLargeNetwork.h2.eth[0] typename "\"inet.linklayer.ethernet.EthernetInterface\""
par VeryLargeNetwork.h2.eth[0] displayStringTextFormat "\"%a (%i)\\n%m\""
par VeryLargeNetwork.h2.eth[0] recordPcap false
par VeryLargeNetwork.h2.eth[0] numPcapRecorders 0
par VeryLargeNetwork.h2.eth[0] interfaceTableModule "\"VeryLargeNetwork.h2.interfaceTable\""
par VeryLargeNetwork.h2.eth[0] protocol "\"ethernetmac\""
par VeryLargeNetwork.h2.eth[0] address "\"0A-AA-00-00-00-02\""
attr mutable ""
par VeryLargeNetwork.h2.eth[0] duplexMode true
par VeryLargeNetwork.h2.eth[0] csmacdSupport false
par VeryLargeNetwork.h2.eth[0] bitrate 0bps
attr unit bps
par VeryLargeNetwork.h2.eth[0] fcsMode "\"declared\""
attr enum declared,computed
scalar VeryLargeNetwork.h2.eth[0] packetDropInterfaceDown:count 0
attr interpolationmode none
attr recordingmode count
attr source packetDropReasonIsInterfaceDown(packetDropped)
attr title "packet drops: interface down, count"
scalar VeryLargeNetwork.h2.eth[0] packetDropInterfaceDown:sum(packetBytes) 0
attr interpolationmode none
attr recordingmode sum(packetBytes)
attr source packetDropReasonIsInterfaceDown(packetDropped)
attr title "packet drops: interface down, sum(packetBytes)"
scalar VeryLargeNetwork.h2.eth[0] packetDropNoCarrier:count 0
attr interpolationmode none
attr recordingmode count
attr source packetDropReasonIsNoCarrier(packetDropped)
attr title "packet drops: no carrier, count"
scalar VeryLargeNetwork.h2.eth[0] packetDropNoCarrier:sum(packetBytes) 0
attr interpolationmode none
attr recordingmode sum(packetBytes)
attr source packetDropReasonIsNoCarrier(packetDropped)
attr title "packet drops: no carrier, sum(packetBytes)"
par VeryLargeNetwork.h2.ipv4.transportIn.channel typename "\"ned.IdealChannel\""
par VeryLargeNetwork.h2.ipv4.up.out[0].channel typename "\"ned.IdealChannel\""
par VeryLargeNetwork.h2.ipv4.lp.out[2].channel typename "\"ned.IdealChannel\""
par VeryLargeNetwork.h2.ipv4.ifIn.channel typename "\"ned.IdealChannel\""
par VeryLargeNetwork.h2.ipv4.configurator typename "\"inet.networklayer.configurator.ipv4.Ipv4NodeConfigurator\""
par VeryLargeNetwork.h2.ipv4.configurator interfaceTableModule "\"VeryLargeNetwork.h2.interfaceTable\""
par VeryLargeNetwork.h2.ipv4.configurator routingTableModule "\"VeryLargeNetwork.h2.ipv4.routingTable\""
par VeryLargeNetwork.h2.ipv4.configurator networkConfiguratorModule "\"configurator\""
par VeryLargeNetwork.h2.ipv4.configurator configureRoutingTable true
par VeryLargeNetwork.h2.ipv4.routingTable typename "\"inet.networklayer.ipv4.Ipv4RoutingTable\""
par VeryLargeNetwork.h2.ipv4.routingTable interfaceTableModule "\"VeryLargeNetwork.h2.interfaceTable\""
par VeryLargeNetwork.h2.ipv4.routingTable routerId "\"auto\""
par VeryLargeNetwork.h2.ipv4.routingTable netmaskRoutes "\"*\""
par VeryLargeNetwork.h2.ipv4.routingTable forwarding false
par VeryLargeNetwork.h2.ipv4.routingTable multicastForwarding false
par VeryLargeNetwork.h2.ipv4.routingTable useAdminDist false
par VeryLargeNetwork.h2.ipv4.routingTable routingFile "\"\""
par VeryLargeNetwork.h2.ipv4.natTable typename "\"inet.networklayer.ipv4.Ipv4NatTable\""
par VeryLargeNetwork.h2.ipv4.natTable networkProtocolModule "\"^.ip\""
par VeryLargeNetwork.h2.ipv4.natTable config "<config/> at content:1"
par VeryLargeNetwork.h2.ipv4.up typename "\"inet.common.MessageDispatcher\""
par VeryLargeNetwork.h2.ipv4.up displayStringTextFormat "\"processed %p pk (%l)\""
par VeryLargeNetwork.h2.ipv4.up forwardServiceRegistration true
par VeryLargeNetwork.h2.ipv4.up forwardProtocolRegistration true
par VeryLargeNetwork.h2.ipv4.igmp typename "\"inet.networklayer.ipv4.Igmpv2\""
par VeryLargeNetwork.h2.ipv4.igmp interfaceTableModule "\"VeryLargeNetwork.h2.interfaceTable\""
par VeryLargeNetwork.h2.ipv4.igmp routingTableModule "\"VeryLargeNetwork.h2.ipv4.routingTable\""
par VeryLargeNetwork.h2.ipv4.igmp crcMode "\"declared\""
attr enum declared,computed
par VeryLargeNetwork.h2.ipv4.igmp enabled true
par VeryLargeNetwork.h2.ipv4.igmp robustnessVariable 2
par VeryLargeNetwork.h2.ipv4.igmp queryInterval 125s
attr unit s
par VeryLargeNetwork.h2.ipv4.igmp queryResponseInterval 10s
attr unit s
par VeryLargeNetwork.h2.ipv4.igmp groupMembershipInterval 260s
attr unit s
par VeryLargeNetwork.h2.ipv4.igmp otherQuerierPresentInterval 255s
attr unit s
par VeryLargeNetwork.h2.ipv4.igmp startupQueryInterval 31.25s
attr unit s
par VeryLargeNetwork.h2.ipv4.igmp startupQueryCount 2
par VeryLargeNetwork.h2.ipv4.igmp lastMemberQueryInterval 1s
attr unit s
par VeryLargeNetwork.h2.ipv4.igmp lastMemberQueryCount 2
par VeryLargeNetwork.h2.ipv4.igmp unsolicitedReportInterval 10s
attr unit s
par VeryLargeNetwork.h2.ipv4.icmp typename "\"inet.networklayer.ipv4.Icmp\""
par VeryLargeNetwork.h2.ipv4.icmp interfaceTableModule "\"VeryLargeNetwork.h2.interfaceTable\""
par VeryLargeNetwork.h2.ipv4.icmp routingTableModule "\"VeryLargeNetwork.h2.ipv4.routingTable\""
par VeryLargeNetwork.h2.ipv4.icmp crcMode "\"declared\""
attr enum declared,computed
attr mutable ""
par VeryLargeNetwork.h2.ipv4.icmp quoteLength 8B
attr mutable ""
attr unit B
par VeryLargeNetwork.h2.ipv4.mp typename "\"inet.common.MessageDispatcher\""
par VeryLargeNetwork.h2.ipv4.mp displayStringTextFormat "\"processed %p pk (%l)\""
par VeryLargeNetwork.h2.ipv4.mp forwardServiceRegistration true
par VeryLargeNetwork.h2.ipv4.mp forwardProtocolRegistration true
par VeryLargeNetwork.h2.ipv4.ip typename "\"inet.networklayer.ipv4.Ipv4\""
par VeryLargeNetwork.h2.ipv4.ip interfaceTableModule "\"VeryLargeNetwork.h2.interfaceTable\""
par VeryLargeNetwork.h2.ipv4.ip routingTableModule "\"VeryLargeNetwork.h2.ipv4.routingTable\""
par VeryLargeNetwork.h2.ipv4.ip arpModule "\"VeryLargeNetwork.h2.ipv4.arp\""
par VeryLargeNetwork.h2.ipv4.ip icmpModule "\"VeryLargeNetwork.h2.ipv4.icmp\""
par VeryLargeNetwork.h2.ipv4.ip crcMode "\"declared\""
attr enum declared,computed
par VeryLargeNetwork.h2.ipv4.ip timeToLive 32
par VeryLargeNetwork.h2.ipv4.ip multicastTimeToLive 32
par VeryLargeNetwork.h2.ipv4.ip fragmentTimeout 60s
attr unit s
par VeryLargeNetwork.h2.ipv4.ip limitedBroadcast false
par VeryLargeNetwork.h2.ipv4.ip directBroadcastInterfaces "\"\""
scalar VeryLargeNetwork.h2.ipv4.ip packetDropAddressResolutionFailed:count 0
attr interpolationmode none
attr recordingmode count
attr source packetDropReasonIsAddressResolutionFailed(packetDropped)
attr title "packet drop: address resolution failed, count"
scalar VeryLargeNetwork.h2.ipv4.ip packetDropAddressResolutionFailed:sum(packetBytes) 0
attr interpolationmode none
attr recordingmode sum(packetBytes)
attr source packetDropReasonIsAddressResolutionFailed(packetDropped)
attr title "packet drop: address resolution failed, sum(packetBytes)"
scalar VeryLargeNetwork.h2.ipv4.ip packetDropHopLimitReached:count 0
attr interpolationmode none
attr recordingmode count
attr source packetDropReasonIsHopLimitReached(packetDropped)
attr title "packet drop: hop limit reached, count"
scalar VeryLargeNetwork.h2.ipv4.ip packetDropHopLimitReached:sum(packetBytes) 0
attr interpolationmode none
attr recordingmode sum(packetBytes)
attr source packetDropReasonIsHopLimitReached(packetDropped)
attr title "packet drop: hop limit reached, sum(packetBytes)"
scalar VeryLargeNetwork.h2.ipv4.ip packetDropForwardingDisabled:count 0
attr interpolationmode none
attr recordingmode count
attr source packetDropReasonIsForwardingDisabled(packetDropped)
attr title "packet drop: forwarding disabled, count"
scalar VeryLargeNetwork.h2.ipv4.ip packetDropForwardingDisabled:sum(packetBytes) 0
attr interpolationmode none
attr recordingmode sum(packetBytes)
attr source packetDropReasonIsForwardingDisabled(packetDropped)
attr title "packet drop: forwarding disabled, sum(packetBytes)"
scalar VeryLargeNetwork.h2.ipv4.ip packetDropNoInterfaceFound:count 0
attr interpolationmode none
attr recordingmode count
attr source packetDropReasonIsNoInterfaceFound(packetDropped)
attr title "packet drop: no interface found, count"
scalar VeryLargeNetwork.h2.ipv4.ip packetDropNoInterfaceFound:sum(packetBytes) 0
attr interpolationmode none
attr recordingmode sum(packetBytes)
attr source packetDropReasonIsNoInterfaceFound(packetDropped)
attr title "packet drop: no interface found, sum(packetBytes)"
scalar VeryLargeNetwork.h2.ipv4.ip packetDropNoRouteFound:count 0
attr interpolationmode none
attr recordingmode count
attr source packetDropReasonIsNoRouteFound(packetDropped)
attr title "packet drop: no route found, count"
scalar VeryLargeNetwork.h2.ipv4.ip packetDropNoRouteFound:sum(packetBytes) 0
attr interpolationmode none
attr recordingmode sum(packetBytes)
attr source packetDropReasonIsNoRouteFound(packetDropped)
attr title "packet drop: no route found, sum(packetBytes)"
scalar VeryLargeNetwork.h2.ipv4.ip packetDropUndefined:count 0
attr interpolationmode none
attr recordingmode count
attr source packetDropReasonIsUndefined(packetDropped)
attr title "packet drop: undefined, count"
scalar VeryLargeNetwork.h2.ipv4.ip packetDropUndefined:sum(packetBytes) 0
attr interpolationmode none
attr recordingmode sum(packetBytes)
attr source packetDropReasonIsUndefined(packetDropped)
attr title "packet drop: undefined, sum(packetBytes)"
par VeryLargeNetwork.h2.ipv4.arp typename "\"inet.networklayer.arp.ipv4.Arp\""
par VeryLargeNetwork.h2.ipv4.arp interfaceTableModule "\"VeryLargeNetwork.h2.interfaceTable\""
par VeryLargeNetwork.h2.ipv4.arp routingTableModule "\"VeryLargeNetwork.h2.ipv4.routingTable\""
par VeryLargeNetwork.h2.ipv4.arp retryTimeout 1s
attr unit s
par VeryLargeNetwork.h2.ipv4.arp retryCount 3
par VeryLargeNetwork.h2.ipv4.arp cacheTimeout 120s
attr unit s
par VeryLargeNetwork.h2.ipv4.arp proxyArpInterfaces "\"\""
scalar VeryLargeNetwork.h2.ipv4.arp arpReplySent:count 0
attr recordingmode count
attr source arpReplySent
attr title "ARP replies sent, count"
scalar VeryLargeNetwork.h2.ipv4.arp arpReplySent:sum(packetBytes) 0
attr recordingmode sum(packetBytes)
attr source arpReplySent
attr title "ARP replies sent, sum(packetBytes)"
scalar VeryLargeNetwork.h2.ipv4.arp arpRequestSent:count 0
attr recordingmode count
attr source arpRequestSent
attr title "ARP request sent, count"
scalar VeryLargeNetwork.h2.ipv4.arp arpRequestSent:sum(packetBytes) 0
attr recordingmode sum(packetBytes)
attr source arpRequestSent
attr title "ARP request sent, sum(packetBytes)"
scalar VeryLargeNetwork.h2.ipv4.arp arpResolutionFailed:count 0
attr recordingmode count
attr title "ARP failed resolutions, count"
scalar VeryLargeNetwork.h2.ipv4.arp arpResolutionCompleted:count 0
attr recordingmode count
attr title "ARP completed resolutions, count"
scalar VeryLargeNetwork.h2.ipv4.arp arpResolutionInitiated:count 0
attr recordingmode count
attr title "ARP initiated resolutions, count"
par VeryLargeNetwork.h2.ipv4.lp typename "\"inet.common.MessageDispatcher\""
par VeryLargeNetwork.h2.ipv4.lp displayStringTextFormat "\"processed %p pk (%l)\""
par VeryLargeNetwork.h2.ipv4.lp forwardServiceRegistration true
par VeryLargeNetwork.h2.ipv4.lp forwardProtocolRegistration true
par VeryLargeNetwork.h2.ipv4 typename "\"inet.networklayer.ipv4.Ipv4NetworkLayer\""
par VeryLargeNetwork.h2.ipv4 forwarding false
par VeryLargeNetwork.h2.ipv4 multicastForwarding false
par VeryLargeNetwork.h2.ipv4 interfaceTableModule "\"VeryLargeNetwork.h2.interfaceTable\""
par VeryLargeNetwork.h2.ipv4 displayStringTextFormat "\"%i\""
par VeryLargeNetwork.h2.nl typename "\"inet.common.MessageDispatcher\""
par VeryLargeNetwork.h2.nl displayStringTextFormat "\"processed %p pk (%l)\""
par VeryLargeNetwork.h2.nl forwardServiceRegistration true
par VeryLargeNetwork.h2.nl forwardProtocolRegistration true
par VeryLargeNetwork.h2.udp typename "\"inet.transportlayer.udp.Udp\""
par VeryLargeNetwork.h2.udp interfaceTableModule "\"VeryLargeNetwork.h2.interfaceTable\""
par VeryLargeNetwork.h2.udp icmpModule "\"^.ipv4.icmp\""
par VeryLargeNetwork.h2.udp icmpv6Module "\"^.ipv6.icmpv6\""
par VeryLargeNetwork.h2.udp crcMode "\"declared\""
attr enum disabled,declared,computed
par VeryLargeNetwork.h2.udp defaultMulticastLoop true
scalar VeryLargeNetwork.h2.udp packetReceived:count 0
attr interpolationmode none
attr recordingmode count
attr source packetReceived
attr title "packets received, count"
scalar VeryLargeNetwork.h2.udp packetReceived:sum(packetBytes) 0
attr interpolationmode none
attr recordingmode sum(packetBytes)
attr source packetReceived
attr title "packets received, sum(packetBytes)"
scalar VeryLargeNetwork.h2.udp packetSent:count 0
attr interpolationmode none
attr recordingmode count
attr source packetSent
attr title "packets sent, count"
scalar VeryLargeNetwork.h2.udp packetSent:sum(packetBytes) 0
attr interpolationmode none
attr recordingmode sum(packetBytes)
attr source packetSent
attr title "packets sent, sum(packetBytes)"
scalar VeryLargeNetwork.h2.udp passedUpPk:count 0
attr interpolationmode none
attr recordingmode count
attr source packetSentToUpper
attr title "packets passed up, count"
scalar VeryLargeNetwork.h2.udp droppedPkWrongPort:count 0
attr interpolationmode none
attr recordingmode count
attr source packetDropReasonIsNoPortFound(packetDropped)
attr title "packets dropped (wrong port), count"
scalar VeryLargeNetwork.h2.udp droppedPkBadChecksum:count 0
attr interpolationmode none
attr recordingmode count
attr source packetDropReasonIsIncorrectlyReceived(packetDropped)
attr title "packets dropped (checksum error), count"
par VeryLargeNetwork.h2.tcp typename "\"inet.transportlayer.tcp.Tcp\""
par VeryLargeNetwork.h2.tcp crcMode "\"declared\""
attr enum declared,computed
par VeryLargeNetwork.h2.tcp advertisedWindow 7504
par VeryLargeNetwork.h2.tcp delayedAcksEnabled false
par VeryLargeNetwork.h2.tcp nagleEnabled true
par VeryLargeNetwork.h2.tcp limitedTransmitEnabled false
par VeryLargeNetwork.h2.tcp increasedIWEnabled false
par VeryLargeNetwork.h2.tcp sackSupport false
par VeryLargeNetwork.h2.tcp windowScalingSupport false
par VeryLargeNetwork.h2.tcp windowScalingFactor -1
par VeryLargeNetwork.h2.tcp timestampSupport false
par VeryLargeNetwork.h2.tcp mss 536
par VeryLargeNetwork.h2.tcp msl 120s
attr unit s
par VeryLargeNetwork.h2.tcp tcpAlgorithmClass "\"TcpReno\""
par VeryLargeNetwork.h2.tcp useDataNotification false
par VeryLargeNetwork.h2.tcp dupthresh 3
par VeryLargeNetwork.h2.tcp initialSsthresh 4294967295
par VeryLargeNetwork.h2.tcp stopOperationExtraTime 0s
attr unit s
par VeryLargeNetwork.h2.tcp stopOperationTimeout 2s
attr unit s
par VeryLargeNetwork.h2.tcp ecnWillingness false
par VeryLargeNetwork.h2.tcp dctcpGamma 0.0625
par VeryLargeNetwork.h2.tn typename "\"inet.common.MessageDispatcher\""
par VeryLargeNetwork.h2.tn displayStringTextFormat "\"processed %p pk (%l)\""
par VeryLargeNetwork.h2.tn forwardServiceRegistration true
par VeryLargeNetwork.h2.tn forwardProtocolRegistration true
par VeryLargeNetwork.h2.at typename "\"inet.common.MessageDispatcher\""
par VeryLargeNetwork.h2.at displayStringTextFormat "\"processed %p pk (%l)\""
par VeryLargeNetwork.h2.at forwardServiceRegistration true
par VeryLargeNetwork.h2.at forwardProtocolRegistration true
par VeryLargeNetwork.h2 typename "\"inet.node.inet.StandardHost\""
par VeryLargeNetwork.h2 hasStatus false
par VeryLargeNetwork.h2 osgModel "\"\""
par VeryLargeNetwork.h2 osgModelColor "\"\""
par VeryLargeNetwork.h2 canvasImage "\"\""
par VeryLargeNetwork.h2 canvasImageColor "\"\""
par VeryLargeNetwork.h2 recordPcap false
par VeryLargeNetwork.h2 numPcapRecorders 0
par VeryLargeNetwork.h2 numLoInterfaces 1
par VeryLargeNetwork.h2 numWlanInterfaces 0
par VeryLargeNetwork.h2 numEthInterfaces 0
par VeryLargeNetwork.h2 numPppInterfaces 0
par VeryLargeNetwork.h2 numTunInterfaces 0
par VeryLargeNetwork.h2 numVirtInterfaces 0
par VeryLargeNetwork.h2 fcsMode "\"declared\""
attr enum declared,computed
par VeryLargeNetwork.h2 hasIpv4 true
par VeryLargeNetwork.h2 hasIpv6 false
par VeryLargeNetwork.h2 hasGn false
par VeryLargeNetwork.h2 forwarding false
par VeryLargeNetwork.h2 multicastForwarding false
par VeryLargeNetwork.h2 hasUdp true
par VeryLargeNetwork.h2 hasTcp true
par VeryLargeNetwork.h2 hasSctp false
par VeryLargeNetwork.h2 numApps 0
par VeryLargeNetwork.r[0].ethg$i[0].channel typename "\"ned.IdealChannel\""
par VeryLargeNetwork.r[0].eth[0].phys$o.channel typename "\"ned.IdealChannel\""
par VeryLargeNetwork.r[0].ethg$i[1].channel typename "\"ned.IdealChannel\""
par VeryLargeNetwork.r[0].eth[1].phys$o.channel typename "\"ned.IdealChannel\""
par VeryLargeNetwork.r[0].interfaceTable typename "\"inet.networklayer.common.InterfaceTable\""
par VeryLargeNetwork.r[0].interfaceTable displayAddresses false
par VeryLargeNetwork.r[0].cb typename "\"inet.common.MessageDispatcher\""
par VeryLargeNetwork.r[0].cb displayStringTextFormat "\"processed %p pk (%l)\""
par VeryLargeNetwork.r[0].cb forwardServiceRegistration true
par VeryLargeNetwork.r[0].cb forwardProtocolRegistration true
par VeryLargeNetwork.r[0].bl typename "\"inet.common.MessageDispatcher\""
par VeryLargeNetwork.r[0].bl displayStringTextFormat "\"processed %p pk (%l)\""
par VeryLargeNetwork.r[0].bl forwardServiceRegistration true
par VeryLargeNetwork.r[0].bl forwardProtocolRegistration true
par VeryLargeNetwork.r[0].ethernet typename "\"inet.linklayer.ethernet.basic.EthernetEncapsulation\""
par VeryLargeNetwork.r[0].ethernet registerProtocol true
par VeryLargeNetwork.r[0].ethernet interfaceTableModule "\"VeryLargeNetwork.r[0].interfaceTable\""
par VeryLargeNetwork.r[0].ethernet fcsMode "\"declared\""
attr enum declared,computed
par VeryLargeNetwork.r[0].ethernet stopOperationExtraTime -1s
attr unit s
par VeryLargeNetwork.r[0].ethernet stopOperationTimeout 2s
attr unit s
scalar VeryLargeNetwork.r[0].ethernet decapPk:count 1
attr interpolationmode none
attr recordingmode count
attr source decapPk
attr title "packets decapsulated, count"
scalar VeryLargeNetwork.r[0].ethernet decapPk:sum(packetBytes) 52
attr interpolationmode none
attr recordingmode sum(packetBytes)
attr source decapPk
attr title "packets decapsulated, sum(packetBytes)"
scalar VeryLargeNetwork.r[0].ethernet encapPk:count 2
attr interpolationmode none
attr recordingmode count
attr source encapPk
attr title "packets encapsulated, count"
scalar VeryLargeNetwork.r[0].ethernet encapPk:sum(packetBytes) 104
attr interpolationmode none
attr recordingmode sum(packetBytes)
attr source encapPk
attr title "packets encapsulated, sum(packetBytes)"
scalar VeryLargeNetwork.r[0].ethernet pauseSent:count 0
attr recordingmode count
attr title "pause sent, count"
scalar VeryLargeNetwork.r[0].ethernet pauseSent:sum 0
attr recordingmode sum
attr title "pause sent, sum"
par VeryLargeNetwork.r[0].li typename "\"inet.common.MessageDispatcher\""
par VeryLargeNetwork.r[0].li displayStringTextFormat "\"processed %p pk (%l)\""
par VeryLargeNetwork.r[0].li forwardServiceRegistration true
par VeryLargeNetwork.r[0].li forwardProtocolRegistration true
par VeryLargeNetwork.r[0].lo[0].upperLayerIn.channel typename "\"ned.IdealChannel\""
par VeryLargeNetwork.r[0].lo[0].lo.upperLayerOut.channel typename "\"ned.IdealChannel\""
par VeryLargeNetwork.r[0].lo[0].lo typename "\"inet.linklayer.loopback.Loopback\""
par VeryLargeNetwork.r[0].lo[0].lo interfaceTableModule "\"VeryLargeNetwork.r[0].interfaceTable\""
par VeryLargeNetwork.r[0].lo[0].lo mtu 4470B
attr unit B
scalar VeryLargeNetwork.r[0].lo[0].lo rcvdPkFromHl:count 0
attr interpolationmode none
attr recordingmode count
attr source packetReceivedFromUpper
attr title "packets received from higher layer, count"
scalar VeryLargeNetwork.r[0].lo[0].lo rcvdPkFromHl:sum(packetBytes) 0
attr interpolationmode none
attr recordingmode sum(packetBytes)
attr source packetReceivedFromUpper
attr title "packets received from higher layer, sum(packetBytes)"
scalar VeryLargeNetwork.r[0].lo[0].lo passedUpPk:count 0
attr interpolationmode none
attr recordingmode count
attr source packetSentToUpper
attr title "packets passed to higher layer, count"
scalar VeryLargeNetwork.r[0].lo[0].lo passedUpPk:sum(packetBytes) 0
attr interpolationmode none
attr recordingmode sum(packetBytes)
attr source packetSentToUpper
attr title "packets passed to higher layer, sum(packetBytes)"
par VeryLargeNetwork.r[0].lo[0] typename "\"inet.linklayer.loopback.LoopbackInterface\""
par VeryLargeNetwork.r[0].lo[0] displayStringTextFormat "\"%a (%i)\\n%m\""
par VeryLargeNetwork.r[0].lo[0] recordPcap false
par VeryLargeNetwork.r[0].lo[0] numPcapRecorders 0
par VeryLargeNetwork.r[0].lo[0] interfaceTableModule "\"VeryLargeNetwork.r[0].interfaceTable\""
scalar VeryLargeNetwork.r[0].lo[0] packetDropInterfaceDown:count 0
attr interpolationmode none
attr recordingmode count
attr source packetDropReasonIsInterfaceDown(packetDropped)
attr title "packet drops: interface down, count"
scalar VeryLargeNetwork.r[0].lo[0] packetDropInterfaceDown:sum(packetBytes) 0
attr interpolationmode none
attr recordingmode sum(packetBytes)
attr source packetDropReasonIsInterfaceDown(packetDropped)
attr title "packet drops: interface down, sum(packetBytes)"
scalar VeryLargeNetwork.r[0].lo[0] packetDropNoCarrier:count 0
attr interpolationmode none
attr recordingmode count
attr source packetDropReasonIsNoCarrier(packetDropped)
attr title "packet drops: no carrier, count"
[...]
attr interpolationmode none
attr recordingmode count
attr source packetDropReasonIsIncorrectlyReceived(packetDropped)
attr title "packet drop: incorrectly received, count"
scalar VeryLargeNetwork.r[9].eth[1].mac packetDropIncorrectlyReceived:sum(packetBytes) 0
attr interpolationmode none
attr recordingmode sum(packetBytes)
attr source packetDropReasonIsIncorrectlyReceived(packetDropped)
attr title "packet drop: incorrectly received, sum(packetBytes)"
scalar VeryLargeNetwork.r[9].eth[1].mac packetDropInterfaceDown:count 0
attr interpolationmode none
attr recordingmode count
attr source packetDropReasonIsInterfaceDown(packetDropped)
attr title "packet drop: interface down, count"
scalar VeryLargeNetwork.r[9].eth[1].mac packetDropInterfaceDown:sum(packetBytes) 0
attr interpolationmode none
attr recordingmode sum(packetBytes)
attr source packetDropReasonIsInterfaceDown(packetDropped)
attr title "packet drop: interface down, sum(packetBytes)"
scalar VeryLargeNetwork.r[9].eth[1].mac packetDropNotAddressedToUs:count 0
attr interpolationmode none
attr recordingmode count
attr source packetDropReasonIsNotAddressedToUs(packetDropped)
attr title "packet drop: not addressed to us, count"
scalar VeryLargeNetwork.r[9].eth[1].mac packetDropNotAddressedToUs:sum(packetBytes) 0
attr interpolationmode none
attr recordingmode sum(packetBytes)
attr source packetDropReasonIsNotAddressedToUs(packetDropped)
attr title "packet drop: not addressed to us, sum(packetBytes)"
scalar VeryLargeNetwork.r[9].eth[1].mac rxPausePkUnits:count 0
attr interpolationmode none
attr recordingmode count
attr title "pause units received, count"
scalar VeryLargeNetwork.r[9].eth[1].mac rxPausePkUnits:sum 0
attr interpolationmode none
attr recordingmode sum
attr title "pause units received, sum"
scalar VeryLargeNetwork.r[9].eth[1].mac txPausePkUnits:count 0
attr interpolationmode none
attr recordingmode count
attr title "pause units sent, count"
scalar VeryLargeNetwork.r[9].eth[1].mac txPausePkUnits:sum 0
attr interpolationmode none
attr recordingmode sum
attr title "pause units sent, sum"
scalar VeryLargeNetwork.r[9].eth[1].mac rxPkOk:count 0
attr interpolationmode none
attr recordingmode count
attr source rxPkOk
attr title "packets received OK, count"
scalar VeryLargeNetwork.r[9].eth[1].mac rxPkOk:sum(packetBytes) 0
attr interpolationmode none
attr recordingmode sum(packetBytes)
attr source rxPkOk
attr title "packets received OK, sum(packetBytes)"
par VeryLargeNetwork.r[9].eth[1] typename "\"inet.linklayer.ethernet.EthernetInterface\""
par VeryLargeNetwork.r[9].eth[1] displayStringTextFormat "\"%a (%i)\\n%m\""
par VeryLargeNetwork.r[9].eth[1] recordPcap false
par VeryLargeNetwork.r[9].eth[1] numPcapRecorders 0
par VeryLargeNetwork.r[9].eth[1] interfaceTableModule "\"VeryLargeNetwork.r[9].interfaceTable\""
par VeryLargeNetwork.r[9].eth[1] protocol "\"ethernetmac\""
par VeryLargeNetwork.r[9].eth[1] address "\"0A-AA-00-00-00-16\""
attr mutable ""
par VeryLargeNetwork.r[9].eth[1] duplexMode true
par VeryLargeNetwork.r[9].eth[1] csmacdSupport false
par VeryLargeNetwork.r[9].eth[1] bitrate 0bps
attr unit bps
par VeryLargeNetwork.r[9].eth[1] fcsMode "\"declared\""
attr enum declared,computed
scalar VeryLargeNetwork.r[9].eth[1] packetDropInterfaceDown:count 0
attr interpolationmode none
attr recordingmode count
attr source packetDropReasonIsInterfaceDown(packetDropped)
attr title "packet drops: interface down, count"
scalar VeryLargeNetwork.r[9].eth[1] packetDropInterfaceDown:sum(packetBytes) 0
attr interpolationmode none
attr recordingmode sum(packetBytes)
attr source packetDropReasonIsInterfaceDown(packetDropped)
attr title "packet drops: interface down, sum(packetBytes)"
scalar VeryLargeNetwork.r[9].eth[1] packetDropNoCarrier:count 0
attr interpolationmode none
attr recordingmode count
attr source packetDropReasonIsNoCarrier(packetDropped)
attr title "packet drops: no carrier, count"
scalar VeryLargeNetwork.r[9].eth[1] packetDropNoCarrier:sum(packetBytes) 0
attr interpolationmode none
attr recordingmode sum(packetBytes)
attr source packetDropReasonIsNoCarrier(packetDropped)
attr title "packet drops: no carrier, sum(packetBytes)"
par VeryLargeNetwork.r[9].ipv4.transportIn.channel typename "\"ned.IdealChannel\""
par VeryLargeNetwork.r[9].ipv4.up.out[0].channel typename "\"ned.IdealChannel\""
par VeryLargeNetwork.r[9].ipv4.lp.out[2].channel typename "\"ned.IdealChannel\""
par VeryLargeNetwork.r[9].ipv4.ifIn.channel typename "\"ned.IdealChannel\""
par VeryLargeNetwork.r[9].ipv4.configurator typename "\"inet.networklayer.configurator.ipv4.Ipv4NodeConfigurator\""
par VeryLargeNetwork.r[9].ipv4.configurator interfaceTableModule "\"VeryLargeNetwork.r[9].interfaceTable\""
par VeryLargeNetwork.r[9].ipv4.configurator routingTableModule "\"VeryLargeNetwork.r[9].ipv4.routingTable\""
par VeryLargeNetwork.r[9].ipv4.configurator networkConfiguratorModule "\"configurator\""
par VeryLargeNetwork.r[9].ipv4.configurator configureRoutingTable true
par VeryLargeNetwork.r[9].ipv4.routingTable typename "\"inet.networklayer.ipv4.Ipv4RoutingTable\""
par VeryLargeNetwork.r[9].ipv4.routingTable interfaceTableModule "\"VeryLargeNetwork.r[9].interfaceTable\""
par VeryLargeNetwork.r[9].ipv4.routingTable routerId "\"auto\""
par VeryLargeNetwork.r[9].ipv4.routingTable netmaskRoutes "\"*\""
par VeryLargeNetwork.r[9].ipv4.routingTable forwarding true
par VeryLargeNetwork.r[9].ipv4.routingTable multicastForwarding false
par VeryLargeNetwork.r[9].ipv4.routingTable useAdminDist false
par VeryLargeNetwork.r[9].ipv4.routingTable routingFile "\"\""
par VeryLargeNetwork.r[9].ipv4.natTable typename "\"inet.networklayer.ipv4.Ipv4NatTable\""
par VeryLargeNetwork.r[9].ipv4.natTable networkProtocolModule "\"^.ip\""
par VeryLargeNetwork.r[9].ipv4.natTable config "<config/> at content:1"
par VeryLargeNetwork.r[9].ipv4.up typename "\"inet.common.MessageDispatcher\""
par VeryLargeNetwork.r[9].ipv4.up displayStringTextFormat "\"processed %p pk (%l)\""
par VeryLargeNetwork.r[9].ipv4.up forwardServiceRegistration true
par VeryLargeNetwork.r[9].ipv4.up forwardProtocolRegistration true
par VeryLargeNetwork.r[9].ipv4.igmp typename "\"inet.networklayer.ipv4.Igmpv2\""
par VeryLargeNetwork.r[9].ipv4.igmp interfaceTableModule "\"VeryLargeNetwork.r[9].interfaceTable\""
par VeryLargeNetwork.r[9].ipv4.igmp routingTableModule "\"VeryLargeNetwork.r[9].ipv4.routingTable\""
par VeryLargeNetwork.r[9].ipv4.igmp crcMode "\"declared\""
attr enum declared,computed
par VeryLargeNetwork.r[9].ipv4.igmp enabled true
par VeryLargeNetwork.r[9].ipv4.igmp robustnessVariable 2
par VeryLargeNetwork.r[9].ipv4.igmp queryInterval 125s
attr unit s
par VeryLargeNetwork.r[9].ipv4.igmp queryResponseInterval 10s
attr unit s
par VeryLargeNetwork.r[9].ipv4.igmp groupMembershipInterval 260s
attr unit s
par VeryLargeNetwork.r[9].ipv4.igmp otherQuerierPresentInterval 255s
attr unit s
par VeryLargeNetwork.r[9].ipv4.igmp startupQueryInterval 31.25s
attr unit s
par VeryLargeNetwork.r[9].ipv4.igmp startupQueryCount 2
par VeryLargeNetwork.r[9].ipv4.igmp lastMemberQueryInterval 1s
attr unit s
par VeryLargeNetwork.r[9].ipv4.igmp lastMemberQueryCount 2
par VeryLargeNetwork.r[9].ipv4.igmp unsolicitedReportInterval 10s
attr unit s
par VeryLargeNetwork.r[9].ipv4.icmp typename "\"inet.networklayer.ipv4.Icmp\""
par VeryLargeNetwork.r[9].ipv4.icmp interfaceTableModule "\"VeryLargeNetwork.r[9].interfaceTable\""
par VeryLargeNetwork.r[9].ipv4.icmp routingTableModule "\"VeryLargeNetwork.r[9].ipv4.routingTable\""
par VeryLargeNetwork.r[9].ipv4.icmp crcMode "\"declared\""
attr enum declared,computed
attr mutable ""
par VeryLargeNetwork.r[9].ipv4.icmp quoteLength 8B
attr mutable ""
attr unit B
par VeryLargeNetwork.r[9].ipv4.mp typename "\"inet.common.MessageDispatcher\""
par VeryLargeNetwork.r[9].ipv4.mp displayStringTextFormat "\"processed %p pk (%l)\""
par VeryLargeNetwork.r[9].ipv4.mp forwardServiceRegistration true
par VeryLargeNetwork.r[9].ipv4.mp forwardProtocolRegistration true
par VeryLargeNetwork.r[9].ipv4.ip typename "\"inet.networklayer.ipv4.Ipv4\""
par VeryLargeNetwork.r[9].ipv4.ip interfaceTableModule "\"VeryLargeNetwork.r[9].interfaceTable\""
par VeryLargeNetwork.r[9].ipv4.ip routingTableModule "\"VeryLargeNetwork.r[9].ipv4.routingTable\""
par VeryLargeNetwork.r[9].ipv4.ip arpModule "\"VeryLargeNetwork.r[9].ipv4.arp\""
par VeryLargeNetwork.r[9].ipv4.ip icmpModule "\"VeryLargeNetwork.r[9].ipv4.icmp\""
par VeryLargeNetwork.r[9].ipv4.ip crcMode "\"declared\""
attr enum declared,computed
par VeryLargeNetwork.r[9].ipv4.ip timeToLive 32
par VeryLargeNetwork.r[9].ipv4.ip multicastTimeToLive 32
par VeryLargeNetwork.r[9].ipv4.ip fragmentTimeout 60s
attr unit s
par VeryLargeNetwork.r[9].ipv4.ip limitedBroadcast false
par VeryLargeNetwork.r[9].ipv4.ip directBroadcastInterfaces "\"\""
scalar VeryLargeNetwork.r[9].ipv4.ip packetDropAddressResolutionFailed:count 0
attr interpolationmode none
attr recordingmode count
attr source packetDropReasonIsAddressResolutionFailed(packetDropped)
attr title "packet drop: address resolution failed, count"
scalar VeryLargeNetwork.r[9].ipv4.ip packetDropAddressResolutionFailed:sum(packetBytes) 0
attr interpolationmode none
attr recordingmode sum(packetBytes)
attr source packetDropReasonIsAddressResolutionFailed(packetDropped)
attr title "packet drop: address resolution failed, sum(packetBytes)"
scalar VeryLargeNetwork.r[9].ipv4.ip packetDropHopLimitReached:count 0
attr interpolationmode none
attr recordingmode count
attr source packetDropReasonIsHopLimitReached(packetDropped)
attr title "packet drop: hop limit reached, count"
scalar VeryLargeNetwork.r[9].ipv4.ip packetDropHopLimitReached:sum(packetBytes) 0
attr interpolationmode none
attr recordingmode sum(packetBytes)
attr source packetDropReasonIsHopLimitReached(packetDropped)
attr title "packet drop: hop limit reached, sum(packetBytes)"
scalar VeryLargeNetwork.r[9].ipv4.ip packetDropForwardingDisabled:count 0
attr interpolationmode none
attr recordingmode count
attr source packetDropReasonIsForwardingDisabled(packetDropped)
attr title "packet drop: forwarding disabled, count"
scalar VeryLargeNetwork.r[9].ipv4.ip packetDropForwardingDisabled:sum(packetBytes) 0
attr interpolationmode none
attr recordingmode sum(packetBytes)
attr source packetDropReasonIsForwardingDisabled(packetDropped)
attr title "packet drop: forwarding disabled, sum(packetBytes)"
scalar VeryLargeNetwork.r[9].ipv4.ip packetDropNoInterfaceFound:count 0
attr interpolationmode none
attr recordingmode count
attr source packetDropReasonIsNoInterfaceFound(packetDropped)
attr title "packet drop: no interface found, count"
scalar VeryLargeNetwork.r[9].ipv4.ip packetDropNoInterfaceFound:sum(packetBytes) 0
attr interpolationmode none
attr recordingmode sum(packetBytes)
attr source packetDropReasonIsNoInterfaceFound(packetDropped)
attr title "packet drop: no interface found, sum(packetBytes)"
scalar VeryLargeNetwork.r[9].ipv4.ip packetDropNoRouteFound:count 0
attr interpolationmode none
attr recordingmode count
attr source packetDropReasonIsNoRouteFound(packetDropped)
attr title "packet drop: no route found, count"
scalar VeryLargeNetwork.r[9].ipv4.ip packetDropNoRouteFound:sum(packetBytes) 0
attr interpolationmode none
attr recordingmode sum(packetBytes)
attr source packetDropReasonIsNoRouteFound(packetDropped)
attr title "packet drop: no route found, sum(packetBytes)"
scalar VeryLargeNetwork.r[9].ipv4.ip packetDropUndefined:count 0
attr interpolationmode none
attr recordingmode count
attr source packetDropReasonIsUndefined(packetDropped)
attr title "packet drop: undefined, count"
scalar VeryLargeNetwork.r[9].ipv4.ip packetDropUndefined:sum(packetBytes) 0
attr interpolationmode none
attr recordingmode sum(packetBytes)
attr source packetDropReasonIsUndefined(packetDropped)
attr title "packet drop: undefined, sum(packetBytes)"
par VeryLargeNetwork.r[9].ipv4.arp typename "\"inet.networklayer.arp.ipv4.Arp\""
par VeryLargeNetwork.r[9].ipv4.arp interfaceTableModule "\"VeryLargeNetwork.r[9].interfaceTable\""
par VeryLargeNetwork.r[9].ipv4.arp routingTableModule "\"VeryLargeNetwork.r[9].ipv4.routingTable\""
par VeryLargeNetwork.r[9].ipv4.arp retryTimeout 1s
attr unit s
par VeryLargeNetwork.r[9].ipv4.arp retryCount 3
par VeryLargeNetwork.r[9].ipv4.arp cacheTimeout 120s
attr unit s
par VeryLargeNetwork.r[9].ipv4.arp proxyArpInterfaces "\"*\""
scalar VeryLargeNetwork.r[9].ipv4.arp arpReplySent:count 0
attr recordingmode count
attr source arpReplySent
attr title "ARP replies sent, count"
scalar VeryLargeNetwork.r[9].ipv4.arp arpReplySent:sum(packetBytes) 0
attr recordingmode sum(packetBytes)
attr source arpReplySent
attr title "ARP replies sent, sum(packetBytes)"
scalar VeryLargeNetwork.r[9].ipv4.arp arpRequestSent:count 0
attr recordingmode count
attr source arpRequestSent
attr title "ARP request sent, count"
scalar VeryLargeNetwork.r[9].ipv4.arp arpRequestSent:sum(packetBytes) 0
attr recordingmode sum(packetBytes)
attr source arpRequestSent
attr title "ARP request sent, sum(packetBytes)"
scalar VeryLargeNetwork.r[9].ipv4.arp arpResolutionFailed:count 0
attr recordingmode count
attr title "ARP failed resolutions, count"
scalar VeryLargeNetwork.r[9].ipv4.arp arpResolutionCompleted:count 0
attr recordingmode count
attr title "ARP completed resolutions, count"
scalar VeryLargeNetwork.r[9].ipv4.arp arpResolutionInitiated:count 0
attr recordingmode count
attr title "ARP initiated resolutions, count"
par VeryLargeNetwork.r[9].ipv4.lp typename "\"inet.common.MessageDispatcher\""
par VeryLargeNetwork.r[9].ipv4.lp displayStringTextFormat "\"processed %p pk (%l)\""
par VeryLargeNetwork.r[9].ipv4.lp forwardServiceRegistration true
par VeryLargeNetwork.r[9].ipv4.lp forwardProtocolRegistration true
par VeryLargeNetwork.r[9].ipv4 typename "\"inet.networklayer.ipv4.Ipv4NetworkLayer\""
par VeryLargeNetwork.r[9].ipv4 forwarding true
par VeryLargeNetwork.r[9].ipv4 multicastForwarding false
par VeryLargeNetwork.r[9].ipv4 interfaceTableModule "\"VeryLargeNetwork.r[9].interfaceTable\""
par VeryLargeNetwork.r[9].ipv4 displayStringTextFormat "\"%i\""
par VeryLargeNetwork.r[9].nl typename "\"inet.common.MessageDispatcher\""
par VeryLargeNetwork.r[9].nl displayStringTextFormat "\"processed %p pk (%l)\""
par VeryLargeNetwork.r[9].nl forwardServiceRegistration true
par VeryLargeNetwork.r[9].nl forwardProtocolRegistration true
par VeryLargeNetwork.r[9].udp typename "\"inet.transportlayer.udp.Udp\""
par VeryLargeNetwork.r[9].udp interfaceTableModule "\"VeryLargeNetwork.r[9].interfaceTable\""
par VeryLargeNetwork.r[9].udp icmpModule "\"^.ipv4.icmp\""
par VeryLargeNetwork.r[9].udp icmpv6Module "\"^.ipv6.icmpv6\""
par VeryLargeNetwork.r[9].udp crcMode "\"declared\""
attr enum disabled,declared,computed
par VeryLargeNetwork.r[9].udp defaultMulticastLoop true
scalar VeryLargeNetwork.r[9].udp packetReceived:count 0
attr interpolationmode none
attr recordingmode count
attr source packetReceived
attr title "packets received, count"
scalar VeryLargeNetwork.r[9].udp packetReceived:sum(packetBytes) 0
attr interpolationmode none
attr recordingmode sum(packetBytes)
attr source packetReceived
attr title "packets received, sum(packetBytes)"
scalar VeryLargeNetwork.r[9].udp packetSent:count 2
attr interpolationmode none
attr recordingmode count
attr source packetSent
attr title "packets sent, count"
scalar VeryLargeNetwork.r[9].udp packetSent:sum(packetBytes) 64
attr interpolationmode none
attr recordingmode sum(packetBytes)
attr source packetSent
attr title "packets sent, sum(packetBytes)"
scalar VeryLargeNetwork.r[9].udp passedUpPk:count 0
attr interpolationmode none
attr recordingmode count
attr source packetSentToUpper
attr title "packets passed up, count"
scalar VeryLargeNetwork.r[9].udp droppedPkWrongPort:count 0
attr interpolationmode none
attr recordingmode count
attr source packetDropReasonIsNoPortFound(packetDropped)
attr title "packets dropped (wrong port), count"
scalar VeryLargeNetwork.r[9].udp droppedPkBadChecksum:count 0
attr interpolationmode none
attr recordingmode count
attr source packetDropReasonIsIncorrectlyReceived(packetDropped)
attr title "packets dropped (checksum error), count"
par VeryLargeNetwork.r[9].tn typename "\"inet.common.MessageDispatcher\""
par VeryLargeNetwork.r[9].tn displayStringTextFormat "\"processed %p pk (%l)\""
par VeryLargeNetwork.r[9].tn forwardServiceRegistration true
par VeryLargeNetwork.r[9].tn forwardProtocolRegistration true
par VeryLargeNetwork.r[9].at typename "\"inet.common.MessageDispatcher\""
par VeryLargeNetwork.r[9].at displayStringTextFormat "\"processed %p pk (%l)\""
par VeryLargeNetwork.r[9].at forwardServiceRegistration true
par VeryLargeNetwork.r[9].at forwardProtocolRegistration true
par VeryLargeNetwork.r[9].rip typename "\"inet.routing.rip.Rip\""
par VeryLargeNetwork.r[9].rip interfaceTableModule "\"VeryLargeNetwork.r[9].interfaceTable\""
par VeryLargeNetwork.r[9].rip routingTableModule "\"^.ipv4.routingTable\""
par VeryLargeNetwork.r[9].rip ripConfig "<config>...</config> at content:1"
par VeryLargeNetwork.r[9].rip mode "\"RIPv2\""
attr enum RIPv2,RIPng
par VeryLargeNetwork.r[9].rip udpPort 520
par VeryLargeNetwork.r[9].rip startupTime "uniform(0s, 5s)"
attr unit s
par VeryLargeNetwork.r[9].rip shutdownTime 1s
attr unit s
par VeryLargeNetwork.r[9].rip updateInterval 30s
attr unit s
par VeryLargeNetwork.r[9].rip routeExpiryTime 180s
attr unit s
par VeryLargeNetwork.r[9].rip routePurgeTime 120s
attr unit s
par VeryLargeNetwork.r[9].rip holdDownTime 0s
attr unit s
par VeryLargeNetwork.r[9].rip triggeredUpdate true
par VeryLargeNetwork.r[9].rip triggeredUpdateDelay "uniform(1s, 5s)"
attr unit s
par VeryLargeNetwork.r[9].rip stopOperationExtraTime -1s
attr unit s
par VeryLargeNetwork.r[9].rip stopOperationTimeout 2s
attr unit s
scalar VeryLargeNetwork.r[9].rip numRoutes:last nan
attr interpolationmode none
attr recordingmode last
attr source numRoutes
attr title "number of routes, last"
scalar VeryLargeNetwork.r[9].rip badResponse:count 0
attr interpolationmode none
attr recordingmode count
attr source badResponse
attr title "bad response received, count"
scalar VeryLargeNetwork.r[9].rip rcvdResponse:count 0
attr interpolationmode none
attr recordingmode count
attr source rcvdResponse
attr title "response received, count"
scalar VeryLargeNetwork.r[9].rip sentUpdate:count 0
attr interpolationmode none
attr recordingmode count
attr source sentUpdate
attr title "update sent, count"
scalar VeryLargeNetwork.r[9].rip sentRequest:count 2
attr interpolationmode none
attr recordingmode count
attr source sentRequest
attr title "request sent, count"
par VeryLargeNetwork.r[9] typename "\"CustomRipRouter\""
par VeryLargeNetwork.r[9] hasStatus false
par VeryLargeNetwork.r[9] osgModel "\"\""
par VeryLargeNetwork.r[9] osgModelColor "\"\""
par VeryLargeNetwork.r[9] canvasImage "\"\""
par VeryLargeNetwork.r[9] canvasImageColor "\"\""
par VeryLargeNetwork.r[9] recordPcap false
par VeryLargeNetwork.r[9] numPcapRecorders 0
par VeryLargeNetwork.r[9] numLoInterfaces 1
par VeryLargeNetwork.r[9] numWlanInterfaces 0
par VeryLargeNetwork.r[9] numEthInterfaces 0
par VeryLargeNetwork.r[9] numPppInterfaces 0
par VeryLargeNetwork.r[9] numTunInterfaces 0
par VeryLargeNetwork.r[9] numVirtInterfaces 0
par VeryLargeNetwork.r[9] fcsMode "\"declared\""
attr enum declared,computed
par VeryLargeNetwork.r[9] hasIpv4 true
par VeryLargeNetwork.r[9] hasIpv6 false
par VeryLargeNetwork.r[9] hasGn false
par VeryLargeNetwork.r[9] forwarding true
par VeryLargeNetwork.r[9] multicastForwarding false
par VeryLargeNetwork.r[9] hasUdp true
par VeryLargeNetwork.r[9] hasTcp false
par VeryLargeNetwork.r[9] hasSctp false
par VeryLargeNetwork.r[9] numApps 0
par VeryLargeNetwork.r[9] hasEigrp false
par VeryLargeNetwork.r[9] hasOspf false
par VeryLargeNetwork.r[9] hasRip true
par VeryLargeNetwork.r[9] hasBgp false
par VeryLargeNetwork.r[9] hasPim false
par VeryLargeNetwork.r[9] hasDhcp false
par VeryLargeNetwork typename "\"VeryLargeNetwork\""

